data/public_benchmarks/arpae_go/extracted/Challenge_1_Original_Dataset_2_Scenarios/Original_Dataset_Offline_Edition_2/Network_07O-020/scenario_5/case.raw
0,100.0,33,0,1,60.0
'GO Competition -- Network Model 07'
'Date: 2019-02-11'
1,'A1',345.0,1,1,1,1,1.0,0.0,1.05,0.95,1.1,0.9
2,'A2',345.0,1,1,1,1,1.0,0.0,1.05,0.95,1.1,0.9
3,'A3',345.0,1,1,1,1,1.0,0.0,1.05,0.95,1.1,0.9
4,'A4',345.0,1,1,1,1,1.0,0.0,1.05,0.95,1.1,0.9
5,'A5',345.0,1,1,1,1,1.0,0.0,1.05,0.95,1.1,0.9
6,'A6',345.0,1,1,1,1,1.0,0.0,1.05,0.95,1.1,0.9
7,'A7',345.0,1,1,1,1,1.0,0.0,1.05,0.95,1.1,0.9
8,'A8',345.0,1,1,1,1,1.0,0.0,1.05,0.95,1.1,0.9
9,'A9',345.0,2,1,1,1,1.0,0.0,1.05,0.95,1.1,0.9
10,'A10',345.0,2,1,1,1,1.0,0.0,1.05,0.95,1.1,0.9
11,'A11',138.0,2,1,1,1,1.0,0.0,1.05,0.95,1.1,0.9
12,'A12',138.0,2,1,1,1,1.0,0.0,1.05,0.95,1.1,0.9
13,'A13',138.0,1,1,1,1,1.0,0.0,1.05,0.95,1.1,0.9
14,'A14',138.0,1,1,1,1,1.0,0.0,1.05,0.95,1.1,0.9
15,'A15',138.0,1,1,1,1,1.0,0.0,1.05,0.95,1.1,0.9
16,'A16',138.0,1,1,1,1,1.0,0.0,1.05,0.95,1.1,0.9
17,'A17',138.0,1,1,1,1,1.0,0.0,1.05,0.95,1.1,0.9
18,'A18',138.0,1,1,1,1,1.0,0.0,1.05,0.95,1.1,0.9
19,'A19',138.0,1,1,1,1,1.0,0.0,1.05,0.95,1.1,0.9
20,'A20',138.0,2,1,1,1,1.0,0.0,1.05,0.95,1.1,0.9
21,'A21',138.0,1,1,1,1,1.0,0.0,1.05,0.95,1.1,0.9
22,'A22',138.0,1,1,1,1,1.0,0.0,1.05,0.95,1.1,0.9
23,'A23',138.0,1,1,1,1,1.0,0.0,1.05,0.95,1.1,0.9
24,'A24',138.0,2,1,1,1,1.0,0.0,1.05,0.95,1.1,0.9
25,'A25',138.0,2,1,1,1,1.0,0.0,1.05,0.95,1.1,0.9
26,'A26',138.0,2,1,1,1,1.0,0.0,1.05,0.95,1.1,0.9
27,'A27',138.0,1,1,1,1,1.0,0.0,1.05,0.95,1.1,0.9
28,'A28',138.0,1,1,1,1,1.0,0.0,1.05,0.95,1.1,0.9
29,'A29',138.0,1,1,1,1,1.0,0.0,1.05,0.95,1.1,0.9
30,'A30',138.0,1,1,1,1,1.0,0.0,1.05,0.95,1.1,0.9
31,'A31',138.0,1,1,1,1,1.0,0.0,1.05,0.95,1.1,0.9
32,'A32',138.0,2,1,1,1,1.0,0.0,1.05,0.95,1.1,0.9
33,'A33',138.0,1,1,1,1,1.0,0.0,1.05,0.95,1.1,0.9
34,'A34',138.0,1,1,1,1,1.0,0.0,1.05,0.95,1.1,0.9
35,'A35',138.0,1,1,1,1,1.0,0.0,1.05,0.95,1.1,0.9
36,'A36',138.0,1,1,1,1,1.0,0.0,1.05,0.95,1.1,0.9
37,'A37',138.0,1,1,1,1,1.0,0.0,1.05,0.95,1.1,0.9
38,'A38',138.0,1,1,1,1,1.0,0.0,1.05,0.95,1.1,0.9
39,'A39',138.0,1,1,1,1,1.0,0.0,1.05,0.95,1.1,0.9
40,'A40',138.0,1,1,1,1,1.0,0.0,1.05,0.95,1.1,0.9
41,'A41',138.0,1,1,1,1,1.0,0.0,1.05,0.95,1.1,0.9
42,'A42',138.0,1,1,1,1,1.0,0.0,1.05,0.95,1.1,0.9
43,'A43',138.0,1,1,1,1,1.0,0.0,1.05,0.95,1.1,0.9
44,'A44',138.0,1,1,1,1,1.0,0.0,1.05,0.95,1.1,0.9
45,'A45',138.0,1,1,1,1,1.0,0.0,1.05,0.95,1.1,0.9
46,'A46',138.0,2,1,1,1,1.0,0.0,1.05,0.95,1.1,0.9
47,'A47',138.0,1,1,1,1,1.0,0.0,1.05,0.95,1.1,0.9
48,'A48',138.0,1,1,1,1,1.0,0.0,1.05,0.95,1.1,0.9
49,'A49',138.0,1,1,1,1,1.0,0.0,1.05,0.95,1.1,0.9
50,'A50',138.0,1,1,1,1,1.0,0.0,1.05,0.95,1.1,0.9
51,'A51',138.0,1,1,1,1,1.0,0.0,1.05,0.95,1.1,0.9
52,'A52',138.0,1,1,1,1,1.0,0.0,1.05,0.95,1.1,0.9
53,'A53',138.0,2,1,1,1,1.0,0.0,1.05,0.95,1.1,0.9
54,'A54',138.0,1,1,1,1,1.0,0.0,1.05,0.95,1.1,0.9
55,'A55',138.0,1,1,1,1,1.0,0.0,1.05,0.95,1.1,0.9
56,'A56',138.0,1,1,1,1,1.0,0.0,1.05,0.95,1.1,0.9
57,'A57',138.0,1,1,1,1,1.0,0.0,1.05,0.95,1.1,0.9
58,'A58',138.0,1,1,1,1,1.0,0.0,1.05,0.95,1.1,0.9
59,'A59',138.0,1,1,1,1,1.0,0.0,1.05,0.95,1.1,0.9
60,'A60',138.0,1,1,1,1,1.0,0.0,1.05,0.95,1.1,0.9
61,'A61',138.0,1,1,1,1,1.0,0.0,1.05,0.95,1.1,0.9
62,'A62',138.0,1,1,1,1,1.0,0.0,1.05,0.95,1.1,0.9
63,'A63',138.0,1,1,1,1,1.0,0.0,1.05,0.95,1.1,0.9
64,'A64',138.0,1,1,1,1,1.0,0.0,1.05,0.95,1.1,0.9
65,'A65',138.0,1,1,1,1,1.0,0.0,1.05,0.95,1.1,0.9
66,'A66',138.0,1,1,1,1,1.0,0.0,1.05,0.95,1.1,0.9
67,'A67',138.0,2,1,1,1,1.0,0.0,1.05,0.95,1.1,0.9
68,'A68',138.0,2,1,1,1,1.0,0.0,1.05,0.95,1.1,0.9
69,'A69',138.0,1,1,1,1,1.0,0.0,1.05,0.95,1.1,0.9
70,'A70',138.0,1,1,1,1,1.0,0.0,1.05,0.95,1.1,0.9
71,'B71',345.0,1,2,2,1,1.0,0.0,1.05,0.95,1.1,0.9
72,'B72',345.0,1,2,2,1,1.0,0.0,1.05,0.95,1.1,0.9
73,'B73',345.0,1,2,2,1,1.0,0.0,1.05,0.95,1.1,0.9
74,'B74',345.0,1,2,2,1,1.0,0.0,1.05,0.95,1.1,0.9
75,'B75',345.0,2,2,2,1,1.0,0.0,1.05,0.95,1.1,0.9
76,'B76',345.0,2,2,2,1,1.0,0.0,1.05,0.95,1.1,0.9
77,'B77',500.0,2,2,2,1,1.0,0.0,1.05,0.95,1.1,0.9
78,'B78',345.0,2,2,2,1,1.0,0.0,1.05,0.95,1.1,0.9
79,'B79',345.0,1,2,2,1,1.0,0.0,1.05,0.95,1.1,0.9
80,'B80',345.0,1,2,2,1,1.0,0.0,1.05,0.95,1.1,0.9
81,'B81',345.0,1,2,2,1,1.0,0.0,1.05,0.95,1.1,0.9
82,'B82',345.0,1,2,2,1,1.0,0.0,1.05,0.95,1.1,0.9
83,'B83',138.0,1,2,2,1,1.0,0.0,1.05,0.95,1.1,0.9
84,'B84',138.0,1,2,2,1,1.0,0.0,1.05,0.95,1.1,0.9
85,'B85',138.0,1,2,2,1,1.0,0.0,1.05,0.95,1.1,0.9
86,'B86',138.0,1,2,2,1,1.0,0.0,1.05,0.95,1.1,0.9
87,'B87',138.0,1,2,2,1,1.0,0.0,1.05,0.95,1.1,0.9
88,'B88',138.0,1,2,2,1,1.0,0.0,1.05,0.95,1.1,0.9
89,'B89',138.0,1,2,2,1,1.0,0.0,1.05,0.95,1.1,0.9
90,'B90',138.0,2,2,2,1,1.0,0.0,1.05,0.95,1.1,0.9
91,'B91',138.0,1,2,2,1,1.0,0.0,1.05,0.95,1.1,0.9
92,'B92',138.0,2,2,2,1,1.0,0.0,1.05,0.95,1.1,0.9
93,'B93',138.0,1,2,2,1,1.0,0.0,1.05,0.95,1.1,0.9
94,'B94',138.0,1,2,2,1,1.0,0.0,1.05,0.95,1.1,0.9
95,'B95',138.0,2,2,2,1,1.0,0.0,1.05,0.95,1.1,0.9
96,'B96',138.0,2,2,2,1,1.0,0.0,1.05,0.95,1.1,0.9
97,'B97',138.0,1,2,2,1,1.0,0.0,1.05,0.95,1.1,0.9
98,'B98',138.0,2,2,2,1,1.0,0.0,1.05,0.95,1.1,0.9
99,'B99',138.0,2,2,2,1,1.0,0.0,1.05,0.95,1.1,0.9
100,'B100',138.0,1,2,2,1,1.0,0.0,1.05,0.95,1.1,0.9
101,'B101',138.0,1,2,2,1,1.0,0.0,1.05,0.95,1.1,0.9
102,'B102',138.0,1,2,2,1,1.0,0.0,1.05,0.95,1.1,0.9
103,'B103',138.0,1,2,2,1,1.0,0.0,1.05,0.95,1.1,0.9
104,'B104',138.0,1,2,2,1,1.0,0.0,1.05,0.95,1.1,0.9
105,'B105',138.0,1,2,2,1,1.0,0.0,1.05,0.95,1.1,0.9
106,'B106',138.0,1,2,2,1,1.0,0.0,1.05,0.95,1.1,0.9
107,'B107',138.0,1,2,2,1,1.0,0.0,1.05,0.95,1.1,0.9
108,'B108',138.0,1,2,2,1,1.0,0.0,1.05,0.95,1.1,0.9
109,'B109',138.0,1,2,2,1,1.0,0.0,1.05,0.95,1.1,0.9
110,'B110',138.0,1,2,2,1,1.0,0.0,1.05,0.95,1.1,0.9
111,'B111',138.0,1,2,2,1,1.0,0.0,1.05,0.95,1.1,0.9
112,'B112',138.0,2,2,2,1,1.0,0.0,1.05,0.95,1.1,0.9
113,'B113',138.0,1,2,2,1,1.0,0.0,1.05,0.95,1.1,0.9
114,'B114',138.0,1,2,2,1,1.0,0.0,1.05,0.95,1.1,0.9
115,'B115',138.0,1,2,2,1,1.0,0.0,1.05,0.95,1.1,0.9
116,'B116',138.0,1,2,2,1,1.0,0.0,1.05,0.95,1.1,0.9
117,'B117',138.0,1,2,2,1,1.0,0.0,1.05,0.95,1.1,0.9
118,'B118',138.0,1,2,2,1,1.0,0.0,1.05,0.95,1.1,0.9
119,'B119',138.0,1,2,2,1,1.0,0.0,1.05,0.95,1.1,0.9
120,'B120',138.0,2,2,2,1,1.0,0.0,1.05,0.95,1.1,0.9
121,'B121',138.0,1,2,2,1,1.0,0.0,1.05,0.95,1.1,0.9
122,'B122',138.0,1,2,2,1,1.0,0.0,1.05,0.95,1.1,0.9
123,'B123',138.0,1,2,2,1,1.0,0.0,1.05,0.95,1.1,0.9
124,'B124',138.0,2,2,2,1,1.0,0.0,1.05,0.95,1.1,0.9
125,'B125',138.0,2,2,2,1,1.0,0.0,1.05,0.95,1.1,0.9
126,'B126',138.0,1,2,2,1,1.0,0.0,1.05,0.95,1.1,0.9
127,'B127',138.0,2,2,2,1,1.0,0.0,1.05,0.95,1.1,0.9
128,'B128',138.0,2,2,2,1,1.0,0.0,1.05,0.95,1.1,0.9
129,'B129',138.0,1,2,2,1,1.0,0.0,1.05,0.95,1.1,0.9
130,'B130',138.0,1,2,2,1,1.0,0.0,1.05,0.95,1.1,0.9
131,'B131',138.0,1,2,2,1,1.0,0.0,1.05,0.95,1.1,0.9
132,'B132',138.0,1,2,2,1,1.0,0.0,1.05,0.95,1.1,0.9
133,'B133',138.0,1,2,2,1,1.0,0.0,1.05,0.95,1.1,0.9
134,'B134',138.0,1,2,2,1,1.0,0.0,1.05,0.95,1.1,0.9
135,'B135',138.0,2,2,2,1,1.0,0.0,1.05,0.95,1.1,0.9
136,'B136',138.0,2,2,2,1,1.0,0.0,1.05,0.95,1.1,0.9
137,'B137',138.0,1,2,2,1,1.0,0.0,1.05,0.95,1.1,0.9
138,'B138',138.0,2,2,2,1,1.0,0.0,1.05,0.95,1.1,0.9
139,'B139',138.0,1,2,2,1,1.0,0.0,1.05,0.95,1.1,0.9
140,'B140',138.0,1,2,2,1,1.0,0.0,1.05,0.95,1.1,0.9
141,'B141',138.0,1,2,2,1,1.0,0.0,1.05,0.95,1.1,0.9
142,'B142',138.0,1,2,2,1,1.0,0.0,1.05,0.95,1.1,0.9
143,'B143',138.0,1,2,2,1,1.0,0.0,1.05,0.95,1.1,0.9
144,'B144',138.0,1,2,2,1,1.0,0.0,1.05,0.95,1.1,0.9
145,'B145',138.0,1,2,2,1,1.0,0.0,1.05,0.95,1.1,0.9
146,'B146',138.0,1,2,2,1,1.0,0.0,1.05,0.95,1.1,0.9
147,'B147',138.0,1,2,2,1,1.0,0.0,1.05,0.95,1.1,0.9
148,'B148',138.0,1,2,2,1,1.0,0.0,1.05,0.95,1.1,0.9
149,'B149',138.0,1,2,2,1,1.0,0.0,1.05,0.95,1.1,0.9
150,'B150',345.0,2,2,2,1,1.0,0.0,1.05,0.95,1.1,0.9
151,'C151',345.0,1,3,3,1,1.0,0.0,1.05,0.95,1.1,0.9
152,'C152',500.0,1,3,3,1,1.0,0.0,1.05,0.95,1.1,0.9
153,'C153',500.0,2,3,3,1,1.0,0.0,1.05,0.95,1.1,0.9
154,'C154',500.0,1,3,3,1,1.0,0.0,1.05,0.95,1.1,0.9
155,'C155',500.0,1,3,3,1,1.0,0.0,1.05,0.95,1.1,0.9
156,'C156',500.0,1,3,3,1,1.0,0.0,1.05,0.95,1.1,0.9
157,'C157',345.0,2,3,3,1,1.0,0.0,1.05,0.95,1.1,0.9
158,'C158',500.0,2,3,3,1,1.0,0.0,1.05,0.95,1.1,0.9
159,'C159',500.0,1,3,3,1,1.0,0.0,1.05,0.95,1.1,0.9
160,'C160',500.0,1,3,3,1,1.0,0.0,1.05,0.95,1.1,0.9
161,'C161',500.0,2,3,3,1,1.0,0.0,1.05,0.95,1.1,0.9
162,'C162',500.0,1,3,3,1,1.0,0.0,1.05,0.95,1.1,0.9
163,'C163',500.0,1,3,3,1,1.0,0.0,1.05,0.95,1.1,0.9
164,'C164',500.0,1,3,3,1,1.0,0.0,1.05,0.95,1.1,0.9
165,'C165',500.0,2,3,3,1,1.0,0.0,1.05,0.95,1.1,0.9
166,'C166',500.0,2,3,3,1,1.0,0.0,1.05,0.95,1.1,0.9
167,'C167',138.0,1,3,3,1,1.0,0.0,1.05,0.95,1.1,0.9
168,'C168',138.0,2,3,3,1,1.0,0.0,1.05,0.95,1.1,0.9
169,'C169',138.0,2,3,3,1,1.0,0.0,1.05,0.95,1.1,0.9
170,'C170',138.0,1,3,3,1,1.0,0.0,1.05,0.95,1.1,0.9
171,'C171',138.0,2,3,3,1,1.0,0.0,1.05,0.95,1.1,0.9
172,'C172',138.0,1,3,3,1,1.0,0.0,1.05,0.95,1.1,0.9
173,'C173',32.0,1,3,3,1,1.0,0.0,1.05,0.95,1.1,0.9
174,'C174',138.0,1,3,3,1,1.0,0.0,1.05,0.95,1.1,0.9
175,'C175',138.0,1,3,3,1,1.0,0.0,1.05,0.95,1.1,0.9
176,'C176',138.0,1,3,3,1,1.0,0.0,1.05,0.95,1.1,0.9
177,'C177',138.0,2,3,3,1,1.0,0.0,1.05,0.95,1.1,0.9
178,'C178',138.0,2,3,3,1,1.0,0.0,1.05,0.95,1.1,0.9
179,'C179',138.0,1,3,3,1,1.0,0.0,1.05,0.95,1.1,0.9
180,'C180',138.0,1,3,3,1,1.0,0.0,1.05,0.95,1.1,0.9
181,'C181',138.0,1,3,3,1,1.0,0.0,1.05,0.95,1.1,0.9
182,'C182',138.0,1,3,3,1,1.0,0.0,1.05,0.95,1.1,0.9
183,'C183',138.0,2,3,3,1,1.0,0.0,1.05,0.95,1.1,0.9
184,'C184',138.0,1,3,3,1,1.0,0.0,1.05,0.95,1.1,0.9
185,'C185',138.0,2,3,3,1,1.0,0.0,1.05,0.95,1.1,0.9
186,'C186',138.0,1,3,3,1,1.0,0.0,1.05,0.95,1.1,0.9
187,'C187',16.0,1,3,3,1,1.0,0.0,1.05,0.95,1.1,0.9
188,'C188',138.0,2,3,3,1,1.0,0.0,1.05,0.95,1.1,0.9
189,'C189',138.0,1,3,3,1,1.0,0.0,1.05,0.95,1.1,0.9
190,'C190',138.0,1,3,3,1,1.0,0.0,1.05,0.95,1.1,0.9
191,'C191',138.0,1,3,3,1,1.0,0.0,1.05,0.95,1.1,0.9
192,'C192',138.0,1,3,3,1,1.0,0.0,1.05,0.95,1.1,0.9
193,'C193',138.0,1,3,3,1,1.0,0.0,1.05,0.95,1.1,0.9
194,'C194',138.0,2,3,3,1,1.0,0.0,1.05,0.95,1.1,0.9
195,'C195',138.0,2,3,3,1,1.0,0.0,1.05,0.95,1.1,0.9
196,'C196',138.0,1,3,3,1,1.0,0.0,1.05,0.95,1.1,0.9
197,'C197',138.0,1,3,3,1,1.0,0.0,1.05,0.95,1.1,0.9
198,'C198',138.0,1,3,3,1,1.0,0.0,1.05,0.95,1.1,0.9
199,'C199',138.0,1,3,3,1,1.0,0.0,1.05,0.95,1.1,0.9
200,'C200',138.0,1,3,3,1,1.0,0.0,1.05,0.95,1.1,0.9
...
0 / end bus section
2197,'99',0,17,17,19.132,5.931,0.0,0.0,0.0,0.0,1,1,0
1564,'99',1,15,15,11.825,-9.726,0.0,0.0,0.0,0.0,1,1,0
650,'1',1,10,10,2.683,1.009,0.0,0.0,0.0,0.0,1,1,0
735,'1',1,11,11,5.603,1.949,0.0,0.0,0.0,0.0,1,1,0
845,'1',1,12,12,11.131,4.08,0.0,0.0,0.0,0.0,1,1,0
658,'1',1,10,10,3.015,0.94,0.0,0.0,0.0,0.0,1,1,0
2151,'1',1,17,17,11.564,3.171,0.0,0.0,0.0,0.0,1,1,0
474,'99',1,8,8,176.541,-16.28,0.0,0.0,0.0,0.0,1,1,0
934,'2',1,13,13,38.571,5.973,0.0,0.0,0.0,0.0,1,1,0
729,'1',1,11,11,3.905,1.636,0.0,0.0,0.0,0.0,1,1,0
626,'1',1,10,10,2.745,0.501,0.0,0.0,0.0,0.0,1,1,0
2247,'1',1,17,17,2.683,1.103,0.0,0.0,0.0,0.0,1,1,0
930,'3',1,13,13,3.604,0.834,0.0,0.0,0.0,0.0,1,1,0
1262,'2',1,13,13,1.329,-0.884,0.0,0.0,0.0,0.0,1,1,0
254,'1',1,4,4,5.096,1.692,0.0,0.0,0.0,0.0,1,1,0
177,'1',1,3,3,0.006,0.006,0.0,0.0,0.0,0.0,1,1,0
919,'1',1,13,13,2.457,-18.659,0.0,0.0,0.0,0.0,1,1,0
1272,'1',1,13,13,0.013,0.251,0.0,0.0,0.0,0.0,1,1,0
479,'99',1,8,8,1121.313,85.138,0.0,0.0,0.0,0.0,1,1,0
1211,'1',1,13,13,4.061,9.865,0.0,0.0,0.0,0.0,1,1,0
263,'1',1,4,4,1.404,0.439,0.0,0.0,0.0,0.0,1,1,0
1571,'1',1,15,15,18.327,13.745,0.0,0.0,0.0,0.0,1,1,0
58,'99',1,1,1,28.763,-4.554,0.0,0.0,0.0,0.0,1,1,0
1766,'1',1,16,16,36.797,10.649,0.0,0.0,0.0,0.0,1,1,0
1579,'1',1,15,15,138.076,51.746,0.0,0.0,0.0,0.0,1,1,0
9,'99',1,1,1,127.281,-88.279,0.0,0.0,0.0,0.0,1,1,0
1018,'1',1,13,13,6.556,1.047,0.0,0.0,0.0,0.0,1,1,0
957,'1',1,13,13,4.613,0.57,0.0,0.0,0.0,0.0,1,1,0
2128,'1',1,17,17,2.526,0.608,0.0,0.0,0.0,0.0,1,1,0
1317,'1',1,13,13,7.559,2.632,0.0,0.0,0.0,0.0,1,1,0
1386,'1',1,14,14,12.234,7.039,0.0,0.0,0.0,0.0,1,1,0
2125,'99',1,17,17,2.375,13.115,0.0,0.0,0.0,0.0,1,1,0
132,'1',1,2,2,3.917,1.091,0.0,0.0,0.0,0.0,1,1,0
327,'1',1,5,5,6.55,0.627,0.0,0.0,0.0,0.0,1,1,0
762,'99',1,12,12,8.803,16.005,0.0,0.0,0.0,0.0,1,1,0
100,'1',1,2,2,8.092,2.971,0.0,0.0,0.0,0.0,1,1,0
800,'1',1,12,12,3.522,1.504,0.0,0.0,0.0,0.0,1,1,0
39,'1',1,1,1,2.952,0.301,0.0,0.0,0.0,0.0,1,1,0
1021,'1',1,13,13,2.864,0.884,0.0,0.0,0.0,0.0,1,1,0
1168,'1',1,13,13,0.57,-0.288,0.0,0.0,0.0,0.0,1,1,0
1134,'1',1,13,13,24.337,11.131,0.0,0.0,0.0,0.0,1,1,0
170,'1',1,3,3,8.881,2.645,0.0,0.0,0.0,0.0,1,1,0
1057,'1',1,13,13,4.638,0.432,0.0,0.0,0.0,0.0,1,1,0
2202,'1',1,17,17,4.663,1.83,0.0,0.0,0.0,0.0,1,1,0
991,'1',1,13,13,6.424,2.206,0.0,0.0,0.0,0.0,1,1,0
1292,'2',1,13,13,4.256,-2.57,0.0,0.0,0.0,0.0,1,1,0
914,'1',1,13,13,7.678,-0.081,0.0,0.0,0.0,0.0,1,1,0
864,'1',1,12,12,0.37,0.125,0.0,0.0,0.0,0.0,1,1,0
693,'1',1,10,10,15.669,4.387,0.0,0.0,0.0,0.0,1,1,0
2246,'1',1,17,17,3.804,1.423,0.0,0.0,0.0,0.0,1,1,0
1550,'99',1,15,15,298.712,29.318,0.0,0.0,0.0,0.0,1,1,0
1948,'1',1,16,16,27.227,6.65,0.0,0.0,0.0,0.0,1,1,0
1262,'3',1,13,13,1.329,-0.884,0.0,0.0,0.0,0.0,1,1,0
2240,'1',1,17,17,1.003,0.257,0.0,0.0,0.0,0.0,1,1,0
500,'1',1,8,8,60.802,18.747,0.0,0.0,0.0,0.0,1,1,0
1111,'2',1,13,13,4.036,0.219,0.0,0.0,0.0,0.0,1,1,0
723,'1',1,11,11,3.967,0.821,0.0,0.0,0.0,0.0,1,1,0
662,'1',1,10,10,3.084,1.072,0.0,0.0,0.0,0.0,1,1,0
731,'1',1,11,11,7.872,1.636,0.0,0.0,0.0,0.0,1,1,0
1030,'1',1,13,13,3.66,-0.796,0.0,0.0,0.0,0.0,1,1,0
930,'2',1,13,13,5.19,2.332,0.0,0.0,0.0,0.0,1,1,0
790,'99',1,12,12,14.726,-6.741,0.0,0.0,0.0,0.0,1,1,0
2048,'1',1,16,16,14.353,4.663,0.0,0.0,0.0,0.0,1,1,0
1785,'1',1,16,16,26.462,7.659,0.0,0.0,0.0,0.0,1,1,0
2235,'99',1,17,17,13.675,-8.391,0.0,0.0,0.0,0.0,1,1,0
1129,'1',1,13,13,7.446,-1.667,0.0,0.0,0.0,0.0,1,1,0
1794,'1',1,16,16,21.047,5.917,0.0,0.0,0.0,0.0,1,1,0
2163,'1',1,17,17,8.342,3.203,0.0,0.0,0.0,0.0,1,1,0
1336,'1',1,13,13,2.57,-0.088,0.0,0.0,0.0,0.0,1,1,0
2102,'1',1,17,17,3.761,9.401,0.0,0.0,0.0,0.0,1,1,0
99,'1',1,2,2,0.006,0.006,0.0,0.0,0.0,0.0,1,1,0
680,'1',1,10,10,3.479,1.197,0.0,0.0,0.0,0.0,1,1,0
1583,'1',1,15,15,153.501,38.439,0.0,0.0,0.0,0.0,1,1,0
1762,'1',1,16,16,56.597,14.196,0.0,0.0,0.0,0.0,1,1,0
1591,'1',1,15,15,157.105,62.075,0.0,0.0,0.0,0.0,1,1,0
1390,'1',1,14,14,12.805,12.924,0.0,0.0,0.0,0.0,1,1,0
1203,'1',1,13,13,26.907,8.674,0.0,0.0,0.0,0.0,1,1,0
1313,'1',1,13,13,5.935,0.175,0.0,0.0,0.0,0.0,1,1,0
128,'1',1,2,2,4.638,1.592,0.0,0.0,0.0,0.0,1,1,0
102,'1',1,2,2,8.875,3.566,0.0,0.0,0.0,0.0,1,1,0
720,'99',0,11,11,5.551,21.347,0.0,0.0,0.0,0.0,1,1,0
1247,'1',1,13,13,49.282,4.626,0.0,0.0,0.0,0.0,1,1,0
1170,'1',1,13,13,45.127,-4.325,0.0,0.0,0.0,0.0,1,1,0
96,'1',1,2,2,0.063,-0.495,0.0,0.0,0.0,0.0,1,1,0
2196,'1',1,17,17,4.97,1.548,0.0,0.0,0.0,0.0,1,1,0
651,'1',1,10,10,1.874,0.652,0.0,0.0,0.0,0.0,1,1,0
2204,'1',1,17,17,3.742,0.827,0.0,0.0,0.0,0.0,1,1,0
1983,'1',1,16,16,3.961,0.125,0.0,0.0,0.0,0.0,1,1,0
969,'1',1,13,13,5.823,0.501,0.0,0.0,0.0,0.0,1,1,0
908,'1',1,13,13,4.406,1.322,0.0,0.0,0.0,0.0,1,1,0
2214,'1',1,17,17,1.987,3.034,0.0,0.0,0.0,0.0,1,1,0
1495,'99',0,15,15,189.857,-1.134,0.0,0.0,0.0,0.0,1,1,0
2172,'1',1,17,17,3.353,1.404,0.0,0.0,0.0,0.0,1,1,0
792,'1',1,12,12,0.094,0.42,0.0,0.0,0.0,0.0,1,1,0
689,'1',1,10,10,8.775,20.056,0.0,0.0,0.0,0.0,1,1,0
2063,'1',1,16,16,25.378,7.208,0.0,0.0,0.0,0.0,1,1,0
2242,'1',1,17,17,2.94,0.514,0.0,0.0,0.0,0.0,1,1,0
441,'99',1,7,7,565.855,23.203,0.0,0.0,0.0,0.0,1,1,0
1244,'1',1,13,13,52.987,-5.929,0.0,0.0,0.0,0.0,1,1,0
836,'1',1,12,12,5.628,2.131,0.0,0.0,0.0,0.0,1,1,0
763,'99',1,12,12,4.69,21.329,0.0,0.0,0.0,0.0,1,1,0
775,'1',1,12,12,8.706,4.864,0.0,0.0,0.0,0.0,1,1,0
2225,'99',1,17,17,11.837,3.91,0.0,0.0,0.0,0.0,1,1,0
1093,'1',1,13,13,15.224,-0.852,0.0,0.0,0.0,0.0,1,1,0
511,'1',1,9,9,5.497,1.667,0.0,0.0,0.0,0.0,1,1,0
548,'1',1,9,9,2.344,0.351,0.0,0.0,0.0,0.0,1,1,0
1103,'1',1,13,13,-6.349,0.884,0.0,0.0,0.0,0.0,1,1,0
2050,'1',1,16,16,7.44,2.363,0.0,0.0,0.0,0.0,1,1,0
644,'1',1,10,10,1.072,0.376,0.0,0.0,0.0,0.0,1,1,0
2121,'1',1,17,17,10.379,4.4,0.0,0.0,0.0,0.0,1,1,0
839,'1',1,12,12,3.397,1.128,0.0,0.0,0.0,0.0,1,1,0
2060,'1',1,16,16,13.92,3.479,0.0,0.0,0.0,0.0,1,1,0
1296,'2',1,13,13,1.279,0.376,0.0,0.0,0.0,0.0,1,1,0
57,'1',1,1,1,2.614,0.934,0.0,0.0,0.0,0.0,1,1,0
654,'1',1,10,10,9.245,6.863,0.0,0.0,0.0,0.0,1,1,0
252,'1',1,4,4,12.222,30.085,0.0,0.0,0.0,0.0,1,1,0
1610,'1',1,15,15,93.382,18.928,0.0,0.0,0.0,0.0,1,1,0
2207,'1',1,17,17,5.271,2.432,0.0,0.0,0.0,0.0,1,1,0
612,'1',1,10,10,6.694,2.896,0.0,0.0,0.0,0.0,1,1,0
2165,'1',1,17,17,8.399,2.194,0.0,0.0,0.0,0.0,1,1,0
620,'1',1,10,10,1.003,-0.338,0.0,0.0,0.0,0.0,1,1,0
390,'1',1,6,6,93.382,18.928,0.0,0.0,0.0,0.0,1,1,0
682,'1',1,10,10,0.671,0.689,0.0,0.0,0.0,0.0,1,1,0
111,'1',1,2,2,0.915,0.332,0.0,0.0,0.0,0.0,1,1,0
1058,'1',1,13,13,-0.213,-1.874,0.0,0.0,0.0,0.0,1,1,0
1369,'99',1,14,14,44.691,36.826,0.0,0.0,0.0,0.0,1,1,0
60,'1',1,1,1,0.94,0.251,0.0,0.0,0.0,0.0,1,1,0
86,'99',0,2,2,9.663,6.313,0.0,0.0,0.0,0.0,1,1,0
2226,'99',1,17,17,13.976,12.318,0.0,0.0,0.0,0.0,1,1,0
489,'1',1,8,8,193.965,63.711,0.0,0.0,0.0,0.0,1,1,0
1205,'1',1,13,13,2.187,0.288,0.0,0.0,0.0,0.0,1,1,0
218,'99',1,4,4,8.387,81.474,0.0,0.0,0.0,0.0,1,1,0
207,'1',1,3,3,19.079,2.645,0.0,0.0,0.0,0.0,1,1,0
130,'1',1,2,2,3.585,1.454,0.0,0.0,0.0,0.0,1,1,0
1215,'1',1,13,13,3.748,-0.821,0.0,0.0,0.0,0.0,1,1,0
201,'1',1,3,3,5.923,0.627,0.0,0.0,0.0,0.0,1,1,0
209,'1',1,3,3,7.239,0.627,0.0,0.0,0.0,0.0,1,1,0
943,'1',1,13,13,9.508,4.412,0.0,0.0,0.0,0.0,1,1,0
98,'1',1,2,2,1.887,3.14,0.0,0.0,0.0,0.0,1,1,0
1048,'1',1,13,13,2.338,-0.971,0.0,0.0,0.0,0.0,1,1,0
1311,'1',1,13,13,8.599,-0.809,0.0,0.0,0.0,0.0,1,1,0
921,'1',1,13,13,6.926,-1.673,0.0,0.0,0.0,0.0,1,1,0
1202,'2',1,13,13,1.078,0.495,0.0,0.0,0.0,0.0,1,1,0
1603,'1',1,15,15,12.084,3.491,0.0,0.0,0.0,0.0,1,1,0
724,'1',1,11,11,11.144,3.585,0.0,0.0,0.0,0.0,1,1,0
1215,'3',1,13,13,3.748,-0.821,0.0,0.0,0.0,0.0,1,1,0
2040,'1',1,16,16,31.551,6.337,0.0,0.0,0.0,0.0,1,1,0
794,'1',1,12,12,8.831,3.842,0.0,0.0,0.0,0.0,1,1,0
1349,'1',1,13,13,3.936,1.304,0.0,0.0,0.0,0.0,1,1,0
1130,'2',1,13,13,3.027,8.135,0.0,0.0,0.0,0.0,1,1,0
1051,'1',1,13,13,-1.197,-2.983,0.0,0.0,0.0,0.0,1,1,0
1031,'2',1,13,13,7.559,1.385,0.0,0.0,0.0,0.0,1,1,0
751,'99',1,12,12,87.657,3.489,0.0,0.0,0.0,0.0,1,1,0
2306,'1',1,18,18,139.236,41.536,0.0,0.0,0.0,0.0,1,1,0
319,'1',1,5,5,9.195,1.949,0.0,0.0,0.0,0.0,1,1,0
900,'1',1,13,13,3.303,0.971,0.0,0.0,0.0,0.0,1,1,0
2043,'1',1,16,16,20.132,2.858,0.0,0.0,0.0,0.0,1,1,0
1192,'1',1,13,13,10.63,0.809,0.0,0.0,0.0,0.0,1,1,0
797,'1',1,12,12,7.546,3.034,0.0,0.0,0.0,0.0,1,1,0
313,'1',1,5,5,2.645,0.627,0.0,0.0,0.0,0.0,1,1,0
1228,'2',1,13,13,6.537,3.535,0.0,0.0,0.0,0.0,1,1,0
1379,'99',1,14,14,148.017,-8.018,0.0,0.0,0.0,0.0,1,1,0
570,'1',1,9,9,4.757,1.567,0.0,0.0,0.0,0.0,1,1,0
1384,'99',0,14,14,6.163,-0.278,0.0,0.0,0.0,0.0,1,1,0
2123,'1',1,17,17,9.408,2.921,0.0,0.0,0.0,0.0,1,1,0
1902,'1',1,16,16,20.226,4.97,0.0,0.0,0.0,0.0,1,1,0
614,'1',1,10,10,1.542,0.501,0.0,0.0,0.0,0.0,1,1,0
608,'1',1,10,10,1.072,0.426,0.0,0.0,0.0,0.0,1,1,0
2161,'1',1,17,17,27.578,10.028,0.0,0.0,0.0,0.0,1,1,0
1135,'99',0,13,13,15.408,16.447,0.0,0.0,0.0,0.0,1,1,0
1163,'1',1,13,13,2.169,1.454,0.0,0.0,0.0,0.0,1,1,0
386,'1',1,6,6,61.862,15.494,0.0,0.0,0.0,0.0,1,1,0
1753,'1',1,16,16,46.199,9.276,0.0,0.0,0.0,0.0,1,1,0
165,'1',1,3,3,6.894,25.071,0.0,0.0,0.0,0.0,1,1,0
175,'1',1,3,3,3.272,1.322,0.0,0.0,0.0,0.0,1,1,0
970,'1',1,13,13,4.77,1.523,0.0,0.0,0.0,0.0,1,1,0
1304,'1',1,13,13,3.61,2.306,0.0,0.0,0.0,0.0,1,1,0
909,'1',1,13,13,0.758,-0.144,0.0,0.0,0.0,0.0,1,1,0
1278,'1',1,13,13,13.726,7.458,0.0,0.0,0.0,0.0,1,1,0
1742,'99',1,16,16,14.511,-8.046,0.0,0.0,0.0,0.0,1,1,0
203,'1',1,3,3,6.55,0.627,0.0,0.0,0.0,0.0,1,1,0
1207,'2',1,13,13,4.325,0.627,0.0,0.0,0.0,0.0,1,1,0
1756,'1',1,16,16,57.656,11.457,0.0,0.0,0.0,0.0,1,1,0
2296,'1',1,18,18,82.15,42.087,0.0,0.0,0.0,0.0,1,1,0
2235,'1',1,17,17,2.614,0.564,0.0,0.0,0.0,0.0,1,1,0
1008,'1',1,13,13,1.504,-0.627,0.0,0.0,0.0,0.0,1,1,0
2305,'1',1,18,18,183.347,47.697,0.0,0.0,0.0,0.0,1,1,0
726,'1',1,11,11,7.239,0.627,0.0,0.0,0.0,0.0,1,1,0
1060,'1',1,13,13,2.977,3.949,0.0,0.0,0.0,0.0,1,1,0
1287,'2',1,13,13,5.534,-0.201,0.0,0.0,0.0,0.0,1,1,0
899,'1',1,13,13,5.772,7.026,0.0,0.0,0.0,0.0,1,1,0
1265,'1',1,13,13,3.83,1.905,0.0,0.0,0.0,0.0,1,1,0
70,'1',1,1,1,15.669,4.387,0.0,0.0,0.0,0.0,1,1,0
162,'99',1,3,3,21.757,37.707,0.0,0.0,0.0,0.0,1,1,0
2094,'1',1,17,17,6.268,27.578,0.0,0.0,0.0,0.0,1,1,0
2309,'99',0,18,18,34.724,29.564,0.0,0.0,0.0,0.0,1,1,0
577,'99',0,10,10,13.121,-7.435,0.0,0.0,0.0,0.0,1,1,0
280,'99',1,5,5,96.9,44.954,0.0,0.0,0.0,0.0,1,1,0
2262,'99',0,17,17,39.058,-0.429,0.0,0.0,0.0,0.0,1,1,0
1156,'1',1,13,13,4.726,-0.426,0.0,0.0,0.0,0.0,1,1,0
...
0 / end load section
2251,'99',1,0.0,17.159
720,'99',1,0.0,20.121
750,'99',1,0.0,13.261
869,'99',1,0.0,5.172
1267,'99',1,0.0,-13.276
1400,'99',1,0.0,13.892
255,'99',1,0.0,7.309
2093,'99',1,0.0,103.474
4,'99',1,0.0,-9.601
2172,'99',1,0.0,2.864
158,'99',1,0.0,-322.112
2083,'99',1,0.0,28.513
2129,'99',1,0.0,-0.089
623,'99',1,0.0,8.01
157,'99',1,0.0,-27.072
624,'99',1,0.0,-7.008
1878,'99',1,0.0,12.724
2258,'99',1,0.0,9.498
245,'99',1,0.0,-10.356
6,'99',1,0.0,41.987
2109,'99',1,0.0,-38.789
2192,'99',1,0.0,-0.371
983,'99',1,0.0,-5.456
703,'99',1,0.0,-47.656
2244,'99',1,0.0,3.661
585,'99',1,0.0,13.934
232,'99',1,0.0,4.355
939,'99',1,0.0,11.802
226,'99',1,0.0,-18.625
1998,'99',1,0.0,4.345
1807,'99',1,0.0,-15.963
1880,'99',1,0.0,-5.367
672,'99',1,0.0,12.795
39,'99',1,0.0,-0.488
2246,'99',1,0.0,-32.703
1533,'99',1,0.0,-95.945
1241,'99',1,0.0,-9.766
760,'99',1,0.0,64.443
1979,'99',1,0.0,0.624
1351,'99',1,0.0,9.622
1054,'99',1,0.0,2.499
1877,'99',1,0.0,-5.368
1565,'99',1,0.0,-52.104
1012,'99',1,0.0,2.712
695,'99',1,0.0,16.47
2309,'99',1,0.0,30.957
275,'99',1,0.0,84.787
1135,'99',1,0.0,16.277
577,'99',1,0.0,-7.123
2262,'99',1,0.0,-0.418
589,'99',1,0.0,3.923
348,'99',1,0.0,-12.059
2111,'99',1,0.0,-2.161
580,'99',1,0.0,-102.36
2311,'99',1,0.0,-63.287
478,'99',1,0.0,64.761
277,'99',1,0.0,110.69
1245,'99',1,0.0,28.8
2146,'99',1,0.0,-19.827
2224,'99',1,0.0,1.293
723,'99',1,0.0,8.7
2269,'99',1,0.0,-361.197
32,'99',1,0.0,-1.306
53,'99',1,0.0,-61.98
2179,'99',1,0.0,94.807
49,'99',1,0.0,-4.149
1999,'99',1,0.0,17.297
1013,'99',1,0.0,-10.135
161,'99',1,0.0,-124.239
2230,'99',1,0.0,-11.696
690,'99',1,0.0,6.841
2297,'99',1,0.0,-130.348
86,'99',1,0.0,6.325
466,'99',1,0.0,-104.053
221,'99',1,0.0,13.922
1525,'99',1,0.0,-18.886
67,'99',1,0.0,3.708
281,'99',1,0.0,2.151
2296,'99',1,0.0,2.477
942,'99',1,0.0,7.486
1377,'99',1,0.0,37.157
2293,'99',1,0.0,-120.311
374,'99',1,0.0,-345.603
579,'99',1,0.0,-9.607
2197,'99',1,0.0,5.815
995,'99',1,0.0,14.167
2095,'99',1,0.0,-13.183
718,'99',1,0.0,-21.734
581,'99',1,0.0,47.641
636,'99',1,0.0,0.009
1226,'99',1,0.0,307.861
766,'99',1,0.0,115.888
1359,'99',1,0.0,44.093
253,'99',1,0.0,6.238
2,'99',1,0.0,-7.133
156,'99',1,0.0,75.294
883,'99',1,0.0,11.098
583,'99',1,0.0,-2.918
1621,'99',1,0.0,-73.418
90,'99',1,0.0,-0.019
1495,'99',1,0.0,-1.174
2287,'99',1,0.0,191.001
285,'99',1,0.0,-161.346
1951,'99',1,0.0,0.756
1376,'99',1,0.0,62.25
1096,'99',1,0.0,-29.377
271,'99',1,0.0,5.929
153,'99',1,0.0,-11.354
225,'99',1,0.0,-110.36
1266,'99',1,0.0,1.091
1557,'99',1,0.0,-31.028
1384,'99',1,0.0,-0.278
43,'99',1,0.0,3.712
979,'99',1,0.0,14.306
1496,'99',1,0.0,12.766
471,'99',1,0.0,-290.111
2174,'99',1,0.0,9.1
309,'99',1,0.0,22.813
1923,'99',1,0.0,-9.083
698,'99',1,0.0,160.079
817,'99',1,0.0,11.465
0 / end fixed shunt section
1451,'1',0.0,0.0,259.031,-259.031,1.00413,0,100.0,0.0,1.0,0.0,0.0,1.0,1,100.0,359.766,0.0,1,1.0,0,1.0,0,1.0,0,1.0,0,1.0
290,'1',0.0,0.0,161.1,-161.1,1.00445,0,100.0,0.0,0.18,0.0,0.0,1.0,0,100.0,223.75,-200.0,1,1.0,0,1.0,0,1.0,0,1.0,0,1.0
453,'1',0.0,0.0,384.303,-384.303,1.00413,0,100.0,0.0,1.0,0.0,0.0,1.0,0,100.0,533.754,0.0,1,1.0,0,1.0,0,1.0,0,1.0,0,1.0
1912,'99',0.0,0.0,650.0,-650.0,1.0009,0,100.0,0.0,1.0,0.0,0.0,1.0,1,100.0,43.199,0.0,1,1.0,0,1.0,0,1.0,0,1.0,0,1.0
845,'1',0.0,0.0,245.7,-245.7,1.00718,0,100.0,0.0,0.2,0.0,0.0,1.0,0,100.0,341.25,2.0,1,1.0,0,1.0,0,1.0,0,1.0,0,1.0
1632,'1',0.0,0.0,240.127,-240.127,1.00413,0,100.0,0.0,1.0,0.0,0.0,1.0,0,100.0,333.51,0.0,1,1.0,0,1.0,0,1.0,0,1.0,0,1.0
2151,'1',0.0,0.0,22.5,-22.5,1.00788,0,100.0,0.0,0.2,0.0,0.0,1.0,0,100.0,31.25,0.0,1,1.0,0,1.0,0,1.0,0,1.0,0,1.0
158,'99',0.0,0.0,33.333,-33.333,0.95472,0,100.0,0.0,1.0,0.0,0.0,1.0,0,100.0,284.075,269.075,1,1.0,0,1.0,0,1.0,0,1.0,0,1.0
469,'99',0.0,0.0,650.0,-650.0,1.0007,0,100.0,0.0,1.0,0.0,0.0,1.0,1,100.0,986.889,0.0,1,1.0,0,1.0,0,1.0,0,1.0,0,1.0
1487,'1',0.0,0.0,75.938,-75.938,1.00413,0,100.0,0.0,1.0,0.0,0.0,1.0,1,100.0,105.469,0.0,1,1.0,0,1.0,0,1.0,0,1.0,0,1.0
2065,'99',0.0,0.0,650.0,-650.0,1.0045,0,100.0,0.0,1.0,0.0,0.0,1.0,1,100.0,335.0,0.0,1,1.0,0,1.0,0,1.0,0,1.0,0,1.0
2187,'1',0.0,0.0,49.5,-49.5,1.00788,0,100.0,0.0,0.2,0.0,0.0,1.0,0,100.0,68.75,20.0,1,1.0,0,1.0,0,1.0,0,1.0,0,1.0
1410,'1',0.0,0.0,365.627,-365.627,1.00413,0,100.0,0.0,1.0,0.0,0.0,1.0,0,100.0,507.815,0.0,1,1.0,0,1.0,0,1.0,0,1.0,0,1.0
869,'99',0.0,0.0,33.333,-33.333,1.00042,0,100.0,0.0,1.0,0.0,0.0,1.0,0,100.0,286.0,4.783,1,1.0,0,1.0,0,1.0,0,1.0,0,1.0
2280,'1',0.0,0.0,346.95,-346.95,1.00413,0,100.0,0.0,1.0,0.0,0.0,1.0,1,100.0,481.875,0.0,1,1.0,0,1.0,0,1.0,0,1.0,0,1.0
952,'1',0.0,0.0,56.667,-56.667,1.0365,0,100.0,0.0,0.195,0.0,0.0,1.0,0,100.0,160.65,144.4,1,1.0,0,1.0,0,1.0,0,1.0,0,1.0
1471,'1',0.0,0.0,285.188,-285.188,1.00413,0,100.0,0.0,1.0,0.0,0.0,1.0,1,100.0,396.094,0.0,1,1.0,0,1.0,0,1.0,0,1.0,0,1.0
694,'1',0.0,0.0,226.8,-226.8,1.00487,0,100.0,0.0,0.2,0.0,0.0,1.0,1,100.0,315.0,0.0,1,1.0,0,1.0,0,1.0,0,1.0,0,1.0
76,'3',0.0,0.0,208.8,-208.8,1.00788,0,100.0,0.0,0.18,0.0,0.0,1.0,1,100.0,290.0,100.0,1,1.0,0,1.0,0,1.0,0,1.0,0,1.0
457,'1',0.0,0.0,314.55,-314.55,1.00413,0,100.0,0.0,1.0,0.0,0.0,1.0,0,100.0,436.875,0.0,1,1.0,0,1.0,0,1.0,0,1.0,0,1.0
465,'1',0.0,0.0,384.25,-384.25,1.00413,0,100.0,0.0,1.0,0.0,0.0,1.0,1,100.0,533.68,0.0,1,1.0,0,1.0,0,1.0,0,1.0,0,1.0
26,'3',0.0,0.0,5.0,-5.0,1.00788,0,100.0,0.0,0.2,0.0,0.0,1.0,0,100.0,15.0,3.0,1,1.0,0,1.0,0,1.0,0,1.0,0,1.0
354,'1',0.0,0.0,273.375,-273.375,1.00413,0,100.0,0.0,1.0,0.0,0.0,1.0,0,100.0,379.688,0.0,1,1.0,0,1.0,0,1.0,0,1.0,0,1.0
983,'99',0.0,0.0,33.333,-33.333,0.9795,0,100.0,0.0,1.0,0.0,0.0,1.0,0,100.0,290.0,6.439,1,1.0,0,1.0,0,1.0,0,1.0,0,1.0
2062,'1',0.0,0.0,566.0,-566.0,1.00413,0,100.0,0.0,1.0,0.0,0.0,1.0,1,100.0,103.125,0.0,1,1.0,0,1.0,0,1.0,0,1.0,0,1.0
2090,'99',0.0,0.0,650.0,-650.0,1.006,0,100.0,0.0,1.0,0.0,0.0,1.0,1,100.0,147.643,0.0,1,1.0,0,1.0,0,1.0,0,1.0,0,1.0
1491,'1',0.0,0.0,197.437,-197.437,1.00413,0,100.0,0.0,1.0,0.0,0.0,1.0,1,100.0,274.219,0.0,1,1.0,0,1.0,0,1.0,0,1.0,0,1.0
2241,'1',0.0,0.0,36.667,-36.667,1.00788,0,100.0,0.0,0.18,0.0,0.0,1.0,0,100.0,110.0,80.0,1,1.0,0,1.0,0,1.0,0,1.0,0,1.0
1430,'1',0.0,0.0,366.884,-366.884,1.00413,0,100.0,0.0,1.0,0.0,0.0,1.0,0,100.0,509.561,0.0,1,1.0,0,1.0,0,1.0,0,1.0,0,1.0
76,'2',0.0,0.0,68.333,-68.333,1.00788,0,100.0,0.0,0.18,0.0,0.0,1.0,0,100.0,205.0,135.0,1,1.0,0,1.0,0,1.0,0,1.0,0,1.0
2302,'1',0.0,0.0,33.333,-33.333,1.01,0,100.0,0.0,1.0,0.0,0.0,1.0,0,100.0,280.0,0.0,1,1.0,0,1.0,0,1.0,0,1.0,0,1.0
2052,'97',0.0,0.0,566.0,-566.0,1.0,0,100.0,0.0,0.1,0.0,0.0,1.0,1,100.0,12.5,0.0,1,1.0,0,1.0,0,1.0,0,1.0,0,1.0
177,'1',0.0,0.0,16.2,-16.2,1.00718,0,100.0,0.0,0.2,0.0,0.0,1.0,0,100.0,22.5,0.0,1,1.0,0,1.0,0,1.0,0,1.0,0,1.0
26,'2',0.0,0.0,5.0,-5.0,1.00788,0,100.0,0.0,0.2,0.0,0.0,1.0,0,100.0,15.0,3.0,1,1.0,0,1.0,0,1.0,0,1.0,0,1.0
1367,'3',0.0,0.0,382.5,-382.5,1.00225,0,100.0,0.0,0.21,0.0,0.0,1.0,0,100.0,531.25,240.0,1,1.0,0,1.0,0,1.0,0,1.0,0,1.0
1960,'1',0.0,0.0,42.188,-42.188,1.00413,0,100.0,0.0,1.0,0.0,0.0,1.0,1,100.0,58.594,0.0,1,1.0,0,1.0,0,1.0,0,1.0,0,1.0
732,'1',0.0,0.0,254.7,-254.7,1.00647,0,100.0,0.0,0.2,0.0,0.0,1.0,0,100.0,353.75,0.0,1,1.0,0,1.0,0,1.0,0,1.0,0,1.0
1458,'1',0.0,0.0,259.031,-259.031,1.00413,0,100.0,0.0,1.0,0.0,0.0,1.0,0,100.0,359.766,0.0,1,1.0,0,1.0,0,1.0,0,1.0,0,1.0
2208,'99',0.0,0.0,650.0,-650.0,1.0074,0,100.0,0.0,1.0,0.0,0.0,1.0,1,100.0,68.439,0.0,1,1.0,0,1.0,0,1.0,0,1.0,0,1.0
1022,'99',0.0,0.0,650.0,-650.0,1.0031,0,100.0,0.0,1.0,0.0,0.0,1.0,1,100.0,135.077,0.0,1,1.0,0,1.0,0,1.0,0,1.0,0,1.0
716,'1',0.0,0.0,2.667,-2.667,1.02182,0,100.0,0.0,0.2,0.0,0.0,1.0,0,100.0,281.0,0.0,1,1.0,0,1.0,0,1.0,0,1.0,0,1.0
26,'1',0.0,0.0,13.5,-13.5,1.00788,0,100.0,0.0,0.2,0.0,0.0,1.0,0,100.0,18.75,3.0,1,1.0,0,1.0,0,1.0,0,1.0,0,1.0
418,'1',0.0,0.0,293.625,-293.625,1.00413,0,100.0,0.0,1.0,0.0,0.0,1.0,0,100.0,407.812,0.0,1,1.0,0,1.0,0,1.0,0,1.0,0,1.0
46,'2',0.0,0.0,10.8,-10.8,0.99763,0,100.0,0.0,0.2,0.0,0.0,1.0,1,100.0,15.0,0.0,1,1.0,0,1.0,0,1.0,0,1.0,0,1.0
1281,'1',0.0,0.0,181.181,-181.181,1.00413,0,100.0,0.0,0.169,0.0,0.0,1.0,1,100.0,251.641,52.25,1,1.0,0,1.0,0,1.0,0,1.0,0,1.0
344,'1',0.0,0.0,363.578,-363.578,1.00413,0,100.0,0.0,1.0,0.0,0.0,1.0,1,100.0,504.97,0.0,1,1.0,0,1.0,0,1.0,0,1.0,0,1.0
1750,'1',0.0,0.0,202.5,-202.5,1.00413,0,100.0,0.0,1.0,0.0,0.0,1.0,0,100.0,281.25,0.0,1,1.0,0,1.0,0,1.0,0,1.0,0,1.0
941,'99',0.0,0.0,650.0,-650.0,1.0075,0,100.0,0.0,1.0,0.0,0.0,1.0,1,100.0,342.5,0.0,1,1.0,0,1.0,0,1.0,0,1.0,0,1.0
808,'2',0.0,0.0,33.333,-33.333,1.02182,0,100.0,0.0,0.18,0.0,0.0,1.0,0,100.0,100.0,55.0,1,1.0,0,1.0,0,1.0,0,1.0,0,1.0
736,'1',0.0,0.0,33.333,-33.333,1.00545,0,100.0,0.0,0.2,0.0,0.0,1.0,0,100.0,272.0,0.0,1,1.0,0,1.0,0,1.0,0,1.0,0,1.0
1054,'99',0.0,0.0,33.333,-33.333,1.00756,0,100.0,0.0,1.0,0.0,0.0,1.0,0,100.0,34.866,19.866,1,1.0,0,1.0,0,1.0,0,1.0,0,1.0
1836,'1',0.0,0.0,15.795,-15.795,1.00413,0,100.0,0.0,1.0,0.0,0.0,1.0,1,100.0,21.938,0.0,1,1.0,0,1.0,0,1.0,0,1.0,0,1.0
1879,'99',0.0,0.0,650.0,-650.0,1.0031,0,100.0,0.0,1.0,0.0,0.0,1.0,1,100.0,105.211,0.0,1,1.0,0,1.0,0,1.0,0,1.0,0,1.0
1565,'99',0.0,0.0,33.333,-33.333,0.98744,0,100.0,0.0,1.0,0.0,0.0,1.0,0,100.0,48.435,33.435,1,1.0,0,1.0,0,1.0,0,1.0,0,1.0
1913,'99',0.0,0.0,650.0,-650.0,1.0051,0,100.0,0.0,1.0,0.0,0.0,1.0,1,100.0,99.164,0.0,1,1.0,0,1.0,0,1.0,0,1.0,0,1.0
77,'99',0.0,0.0,650.0,-650.0,1.0026,0,100.0,0.0,1.0,0.0,0.0,1.0,1,100.0,309.292,0.0,1,1.0,0,1.0,0,1.0,0,1.0,0,1.0
414,'1',0.0,0.0,285.188,-285.188,1.00413,0,100.0,0.0,1.0,0.0,0.0,1.0,1,100.0,396.094,0.0,1,1.0,0,1.0,0,1.0,0,1.0,0,1.0
1617,'1',0.0,0.0,277.295,-277.295,1.00413,0,100.0,0.0,1.0,0.0,0.0,1.0,0,100.0,385.132,0.0,1,1.0,0,1.0,0,1.0,0,1.0,0,1.0
1448,'1',0.0,0.0,244.012,-244.012,1.00413,0,100.0,0.0,1.0,0.0,0.0,1.0,0,100.0,338.906,0.0,1,1.0,0,1.0,0,1.0,0,1.0,0,1.0
759,'3',0.0,0.0,382.5,-382.5,1.00225,0,100.0,0.0,0.21,0.0,0.0,1.0,1,100.0,531.25,240.0,1,1.0,0,1.0,0,1.0,0,1.0,0,1.0
1840,'1',0.0,0.0,12.634,-12.634,1.00413,0,100.0,0.0,1.0,0.0,0.0,1.0,1,100.0,17.547,0.0,1,1.0,0,1.0,0,1.0,0,1.0,0,1.0
558,'99',0.0,0.0,650.0,-650.0,1.0074,0,100.0,0.0,1.0,0.0,0.0,1.0,1,100.0,33.967,0.0,1,1.0,0,1.0,0,1.0,0,1.0,0,1.0
595,'1',0.0,0.0,241.875,-241.875,1.00358,0,100.0,0.0,0.18,0.0,0.0,1.0,1,100.0,335.938,135.0,1,1.0,0,1.0,0,1.0,0,1.0,0,1.0
1432,'1',0.0,0.0,361.904,-361.904,1.00413,0,100.0,0.0,1.0,0.0,0.0,1.0,1,100.0,502.644,0.0,1,1.0,0,1.0,0,1.0,0,1.0,0,1.0
877,'99',0.0,0.0,650.0,-650.0,1.0062,0,100.0,0.0,1.0,0.0,0.0,1.0,1,100.0,202.767,0.0,1,1.0,0,1.0,0,1.0,0,1.0,0,1.0
379,'99',0.0,0.0,650.0,-650.0,0.9971,0,100.0,0.0,1.0,0.0,0.0,1.0,1,100.0,976.977,0.0,1,1.0,0,1.0,0,1.0,0,1.0,0,1.0
937,'1',0.0,0.0,262.8,-262.8,1.0031,0,100.0,0.0,1.0,0.0,0.0,1.0,1,100.0,365.0,3.15,1,1.0,0,1.0,0,1.0,0,1.0,0,1.0
1636,'1',0.0,0.0,38.88,-38.88,1.00413,0,100.0,0.0,1.0,0.0,0.0,1.0,1,100.0,54.0,0.0,1,1.0,0,1.0,0,1.0,0,1.0,0,1.0
1245,'99',0.0,0.0,33.333,-33.333,1.01639,0,100.0,0.0,1.0,0.0,0.0,1.0,0,100.0,89.627,74.627,1,1.0,0,1.0,0,1.0,0,1.0,0,1.0
2053,'97',0.0,0.0,566.0,-566.0,1.0,0,100.0,0.0,0.1,0.0,0.0,1.0,1,100.0,12.5,0.0,1,1.0,0,1.0,0,1.0,0,1.0,0,1.0
2139,'1',0.0,0.0,4.333,-4.333,1.02455,0,100.0,0.0,0.2,0.0,0.0,1.0,0,100.0,13.0,0.0,1,1.0,0,1.0,0,1.0,0,1.0,0,1.0
595,'2',0.0,0.0,230.625,-230.625,1.00358,0,100.0,0.0,0.18,0.0,0.0,1.0,0,100.0,320.312,135.0,1,1.0,0,1.0,0,1.0,0,1.0,0,1.0
1025,'99',0.0,0.0,650.0,-650.0,1.0042,0,100.0,0.0,1.0,0.0,0.0,1.0,1,100.0,955.892,0.0,1,1.0,0,1.0,0,1.0,0,1.0,0,1.0
365,'1',0.0,0.0,327.375,-327.375,1.00413,0,100.0,0.0,1.0,0.0,0.0,1.0,0,100.0,454.688,0.0,1,1.0,0,1.0,0,1.0,0,1.0,0,1.0
452,'1',0.0,0.0,384.454,-384.454,1.00413,0,100.0,0.0,1.0,0.0,0.0,1.0,1,100.0,533.964,0.0,1,1.0,0,1.0,0,1.0,0,1.0,0,1.0
1415,'1',0.0,0.0,363.101,-363.101,1.00413,0,100.0,0.0,1.0,0.0,0.0,1.0,1,100.0,504.307,0.0,1,1.0,0,1.0,0,1.0,0,1.0,0,1.0
653,'2',0.0,0.0,10.8,-10.8,0.99718,0,100.0,0.0,0.2,0.0,0.0,1.0,1,100.0,15.0,0.0,1,1.0,0,1.0,0,1.0,0,1.0,0,1.0
349,'1',0.0,0.0,243.0,-243.0,1.00413,0,100.0,0.0,1.0,0.0,0.0,1.0,1,100.0,337.5,0.0,1,1.0,0,1.0,0,1.0,0,1.0,0,1.0
1379,'2',0.0,0.0,40.0,-40.0,1.00682,0,100.0,0.0,0.18,0.0,0.0,1.0,0,100.0,120.0,100.0,1,1.0,0,1.0,0,1.0,0,1.0,0,1.0
546,'1',0.0,0.0,241.849,-241.849,1.00788,0,100.0,0.0,0.18,0.0,0.0,1.0,0,100.0,335.902,0.0,1,1.0,0,1.0,0,1.0,0,1.0,0,1.0
689,'2',0.0,0.0,230.625,-230.625,1.00858,0,100.0,0.0,0.18,0.0,0.0,1.0,1,100.0,320.312,135.0,1,1.0,0,1.0,0,1.0,0,1.0,0,1.0
1399,'1',0.0,0.0,244.8,-244.8,1.00788,0,100.0,0.0,0.2,0.0,0.0,1.0,1,100.0,340.0,0.0,1,1.0,0,1.0,0,1.0,0,1.0,0,1.0
1486,'1',0.0,0.0,75.938,-75.938,1.00413,0,100.0,0.0,1.0,0.0,0.0,1.0,0,100.0,105.469,0.0,1,1.0,0,1.0,0,1.0,0,1.0,0,1.0
709,'1',0.0,0.0,18.333,-18.333,1.02182,0,100.0,0.0,0.2,0.0,0.0,1.0,0,100.0,55.0,24.0,1,1.0,0,1.0,0,1.0,0,1.0,0,1.0
161,'99',0.0,0.0,33.333,-33.333,0.97706,0,100.0,0.0,1.0,0.0,0.0,1.0,0,100.0,42.024,27.024,1,1.0,0,1.0,0,1.0,0,1.0,0,1.0
2107,'2',0.0,0.0,45.0,-45.0,1.01227,0,100.0,0.0,0.18,0.0,0.0,1.0,0,100.0,135.0,-135.0,1,1.0,0,1.0,0,1.0,0,1.0,0,1.0
411,'1',0.0,0.0,312.12,-312.12,1.00413,0,100.0,0.0,1.0,0.0,0.0,1.0,0,100.0,433.5,0.0,1,1.0,0,1.0,0,1.0,0,1.0,0,1.0
2170,'1',0.0,0.0,16.667,-16.667,1.02455,0,100.0,0.0,0.2,0.0,0.0,1.0,0,100.0,50.0,10.0,1,1.0,0,1.0,0,1.0,0,1.0,0,1.0
456,'1',0.0,0.0,383.82,-383.82,1.00413,0,100.0,0.0,1.0,0.0,0.0,1.0,0,100.0,533.084,0.0,1,1.0,0,1.0,0,1.0,0,1.0,0,1.0
252,'2',0.0,0.0,112.5,-112.5,1.00376,0,100.0,0.0,0.18,0.0,0.0,1.0,0,100.0,156.25,70.0,1,1.0,0,1.0,0,1.0,0,1.0,0,1.0
395,'1',0.0,0.0,365.885,-365.885,1.00413,0,100.0,0.0,1.0,0.0,0.0,1.0,0,100.0,508.174,0.0,1,1.0,0,1.0,0,1.0,0,1.0,0,1.0
1445,'1',0.0,0.0,273.375,-273.375,1.00413,0,100.0,0.0,1.0,0.0,0.0,1.0,0,100.0,379.688,0.0,1,1.0,0,1.0,0,1.0,0,1.0,0,1.0
353,'1',0.0,0.0,273.375,-273.375,1.00413,0,100.0,0.0,1.0,0.0,0.0,1.0,1,100.0,379.688,0.0,1,1.0,0,1.0,0,1.0,0,1.0,0,1.0
1453,'1',0.0,0.0,259.031,-259.031,1.00413,0,100.0,0.0,1.0,0.0,0.0,1.0,0,100.0,359.766,0.0,1,1.0,0,1.0,0,1.0,0,1.0,0,1.0
2240,'1',0.0,0.0,16.667,-16.667,1.02455,0,100.0,0.0,0.2,0.0,0.0,1.0,0,100.0,50.0,35.0,1,1.0,0,1.0,0,1.0,0,1.0,0,1.0
455,'1',0.0,0.0,383.78,-383.78,1.00413,0,100.0,0.0,1.0,0.0,0.0,1.0,1,100.0,533.027,0.0,1,1.0,0,1.0,0,1.0,0,1.0,0,1.0
431,'1',0.0,0.0,327.375,-327.375,1.00413,0,100.0,0.0,1.0,0.0,0.0,1.0,1,100.0,454.688,0.0,1,1.0,0,1.0,0,1.0,0,1.0,0,1.0
1286,'99',0.0,0.0,650.0,-650.0,1.01,0,100.0,0.0,1.0,0.0,0.0,1.0,1,100.0,327.5,0.0,1,1.0,0,1.0,0,1.0,0,1.0,0,1.0
1634,'1',0.0,0.0,40.095,-40.095,1.00413,0,100.0,0.0,1.0,0.0,0.0,1.0,1,100.0,55.688,0.0,1,1.0,0,1.0,0,1.0,0,1.0,0,1.0
1797,'1',0.0,0.0,14.58,-14.58,1.00155,0,100.0,0.0,1.0,0.0,0.0,1.0,0,100.0,20.25,0.0,1,1.0,0,1.0,0,1.0,0,1.0,0,1.0
1971,'99',0.0,0.0,650.0,-650.0,1.0047,0,100.0,0.0,1.0,0.0,0.0,1.0,1,100.0,71.263,0.0,1,1.0,0,1.0,0,1.0,0,1.0,0,1.0
1473,'1',0.0,0.0,293.625,-293.625,1.00413,0,100.0,0.0,1.0,0.0,0.0,1.0,1,100.0,407.812,0.0,1,1.0,0,1.0,0,1.0,0,1.0,0,1.0
228,'1',0.0,0.0,45.0,-45.0,1.01227,0,100.0,0.0,0.18,0.0,0.0,1.0,0,100.0,135.0,-135.0,1,1.0,0,1.0,0,1.0,0,1.0,0,1.0
236,'1',0.0,0.0,16.667,-16.667,1.02455,0,100.0,0.0,0.2,0.0,0.0,1.0,0,100.0,50.0,38.0,1,1.0,0,1.0,0,1.0,0,1.0,0,1.0
1457,'1',0.0,0.0,259.031,-259.031,1.00413,0,100.0,0.0,1.0,0.0,0.0,1.0,0,100.0,359.766,0.0,1,1.0,0,1.0,0,1.0,0,1.0,0,1.0
125,'1',0.0,0.0,58.5,-58.5,1.00929,0,100.0,0.0,0.2,0.0,0.0,1.0,0,100.0,81.25,40.0,1,1.0,0,1.0,0,1.0,0,1.0,0,1.0
459,'1',0.0,0.0,383.4,-383.4,1.00413,0,100.0,0.0,1.0,0.0,0.0,1.0,1,100.0,532.5,0.0,1,1.0,0,1.0,0,1.0,0,1.0,0,1.0
2039,'99',0.0,0.0,650.0,-650.0,1.0049,0,100.0,0.0,1.0,0.0,0.0,1.0,1,100.0,34.244,0.0,1,1.0,0,1.0,0,1.0,0,1.0,0,1.0
636,'99',0.0,0.0,33.333,-33.333,1.02382,0,100.0,0.0,1.0,0.0,0.0,1.0,0,100.0,255.0,6.013,1,1.0,0,1.0,0,1.0,0,1.0,0,1.0
385,'99',0.0,0.0,650.0,-650.0,0.9925,0,100.0,0.0,1.0,0.0,0.0,1.0,1,100.0,588.045,0.0,1,1.0,0,1.0,0,1.0,0,1.0,0,1.0
2088,'2',0.0,0.0,2.0,-2.0,1.00753,0,100.0,0.0,0.2,0.0,0.0,1.0,0,100.0,257.0,0.0,1,1.0,0,1.0,0,1.0,0,1.0,0,1.0
1467,'1',0.0,0.0,364.525,-364.525,1.00413,0,100.0,0.0,1.0,0.0,0.0,1.0,1,100.0,506.285,0.0,1,1.0,0,1.0,0,1.0,0,1.0,0,1.0
2259,'99',0.0,0.0,650.0,-650.0,1.0064,0,100.0,0.0,1.0,0.0,0.0,1.0,1,100.0,67.028,0.0,1,1.0,0,1.0,0,1.0,0,1.0,0,1.0
1630,'1',0.0,0.0,240.134,-240.134,1.00413,0,100.0,0.0,1.0,0.0,0.0,1.0,1,100.0,333.52,0.0,1,1.0,0,1.0,0,1.0,0,1.0,0,1.0
469,'1',0.0,0.0,33.333,-33.333,1.0007,0,100.0,0.0,1.0,0.0,0.0,1.0,0,100.0,297.0,0.0,1,1.0,0,1.0,0,1.0,0,1.0,0,1.0
1827,'1',0.0,0.0,200.142,-200.142,1.00413,0,100.0,0.0,1.0,0.0,0.0,1.0,0,100.0,277.975,0.0,1,1.0,0,1.0,0,1.0,0,1.0,0,1.0
95,'1',0.0,0.0,258.3,-258.3,1.00225,0,100.0,0.0,0.2,0.0,0.0,1.0,0,100.0,358.75,0.0,1,1.0,0,1.0,0,1.0,0,1.0,0,1.0
2139,'2',0.0,0.0,4.333,-4.333,1.02455,0,100.0,0.0,0.2,0.0,0.0,1.0,0,100.0,13.0,0.0,1,1.0,0,1.0,0,1.0,0,1.0,0,1.0
1941,'97',0.0,0.0,566.0,-566.0,1.0,0,100.0,0.0,0.1,0.0,0.0,1.0,1,100.0,12.5,0.0,1,1.0,0,1.0,0,1.0,0,1.0,0,1.0
1129,'1',0.0,0.0,33.333,-33.333,1.038,0,100.0,0.0,1.0,0.0,0.0,1.0,0,100.0,277.0,0.0,1,1.0,0,1.0,0,1.0,0,1.0,0,1.0
318,'1',0.0,0.0,269.1,-269.1,1.00718,0,100.0,0.0,0.2,0.0,0.0,1.0,1,100.0,373.75,0.0,1,1.0,0,1.0,0,1.0,0,1.0,0,1.0
2179,'1',0.0,0.0,248.4,-248.4,1.0034,0,100.0,0.0,0.2,0.0,0.0,1.0,0,100.0,345.0,0.0,1,1.0,0,1.0,0,1.0,0,1.0,0,1.0
2287,'99',0.0,0.0,33.333,-33.333,0.99361,0,100.0,0.0,1.0,0.0,0.0,1.0,0,100.0,95.919,80.919,1,1.0,0,1.0,0,1.0,0,1.0,0,1.0
1213,'1',0.0,0.0,10.0,-10.0,1.0009,0,100.0,0.0,0.2,0.0,0.0,1.0,0,100.0,27.35,12.35,1,1.0,0,1.0,0,1.0,0,1.0,0,1.0
302,'1',0.0,0.0,19.8,-19.8,1.00788,0,100.0,0.0,0.2,0.0,0.0,1.0,0,100.0,27.5,0.0,1,1.0,0,1.0,0,1.0,0,1.0,0,1.0
1855,'1',0.0,0.0,221.117,-221.117,1.00413,0,100.0,0.0,1.0,0.0,0.0,1.0,0,100.0,307.106,0.0,1,1.0,0,1.0,0,1.0,0,1.0,0,1.0
1494,'99',0.0,0.0,650.0,-650.0,1.003,0,100.0,0.0,1.0,0.0,0.0,1.0,1,100.0,531.693,0.0,1,1.0,0,1.0,0,1.0,0,1.0,0,1.0
1376,'99',0.0,0.0,33.333,-33.333,1.00413,0,100.0,0.0,1.0,0.0,0.0,1.0,0,100.0,156.952,141.952,1,1.0,0,1.0,0,1.0,0,1.0,0,1.0
2199,'3',0.0,0.0,107.1,-107.1,1.00788,0,100.0,0.0,0.18,0.0,0.0,1.0,1,100.0,148.75,80.0,1,1.0,0,1.0,0,1.0,0,1.0,0,1.0
99,'1',0.0,0.0,235.8,-235.8,1.00788,0,100.0,0.0,0.2,0.0,0.0,1.0,1,100.0,327.5,1.0,1,1.0,0,1.0,0,1.0,0,1.0,0,1.0
1096,'99',0.0,0.0,33.333,-33.333,0.9938,0,100.0,0.0,1.0,0.0,0.0,1.0,0,100.0,82.662,67.662,1,1.0,0,1.0,0,1.0,0,1.0,0,1.0
153,'99',0.0,0.0,33.333,-33.333,0.99917,0,100.0,0.0,1.0,0.0,0.0,1.0,0,100.0,137.965,122.965,1,1.0,0,1.0,0,1.0,0,1.0,0,1.0
1422,'1',0.0,0.0,364.417,-364.417,1.00413,0,100.0,0.0,1.0,0.0,0.0,1.0,1,100.0,506.135,0.0,1,1.0,0,1.0,0,1.0,0,1.0,0,1.0
2294,'99',0.0,0.0,650.0,-650.0,0.9908,0,100.0,0.0,1.0,0.0,0.0,1.0,1,100.0,368.75,0.0,1,1.0,0,1.0,0,1.0,0,1.0,0,1.0
356,'1',0.0,0.0,244.012,-244.012,1.00413,0,100.0,0.0,1.0,0.0,0.0,1.0,1,100.0,338.906,0.0,1,1.0,0,1.0,0,1.0,0,1.0,0,1.0
169,'1',0.0,0.0,18.333,-18.333,1.01909,0,100.0,0.0,0.2,0.0,0.0,1.0,0,100.0,55.0,26.0,1,1.0,0,1.0,0,1.0,0,1.0,0,1.0
364,'1',0.0,0.0,327.375,-327.375,1.00413,0,100.0,0.0,1.0,0.0,0.0,1.0,1,100.0,454.688,0.0,1,1.0,0,1.0,0,1.0,0,1.0,0,1.0
392,'1',0.0,0.0,365.983,-365.983,1.00413,0,100.0,0.0,1.0,0.0,0.0,1.0,0,100.0,508.31,0.0,1,1.0,0,1.0,0,1.0,0,1.0,0,1.0
2301,'1',0.0,0.0,33.333,-33.333,1.01,0,100.0,0.0,1.0,0.0,0.0,1.0,0,100.0,286.0,0.0,1,1.0,0,1.0,0,1.0,0,1.0,0,1.0
400,'1',0.0,0.0,330.75,-330.75,1.00413,0,100.0,0.0,1.0,0.0,0.0,1.0,0,100.0,459.375,0.0,1,1.0,0,1.0,0,1.0,0,1.0,0,1.0
1614,'99',0.0,0.0,650.0,-650.0,0.9944,0,100.0,0.0,1.0,0.0,0.0,1.0,1,100.0,92.274,0.0,1,1.0,0,1.0,0,1.0,0,1.0,0,1.0
979,'99',0.0,0.0,33.333,-33.333,0.99284,0,100.0,0.0,1.0,0.0,0.0,1.0,0,100.0,35.226,20.226,1,1.0,0,1.0,0,1.0,0,1.0,0,1.0
708,'1',0.0,0.0,8.333,-8.333,1.00718,0,100.0,0.0,0.2,0.0,0.0,1.0,0,100.0,30.0,15.0,1,1.0,0,1.0,0,1.0,0,1.0,0,1.0
1096,'2',0.0,0.0,5.0,-5.0,0.9938,0,100.0,0.0,0.2,0.0,0.0,1.0,0,100.0,26.4,11.4,1,1.0,0,1.0,0,1.0,0,1.0,0,1.0
128,'1',0.0,0.0,27.9,-27.9,1.00507,0,100.0,0.0,0.2,0.0,0.0,1.0,0,100.0,38.75,0.0,1,1.0,0,1.0,0,1.0,0,1.0,0,1.0
1923,'99',0.0,0.0,33.333,-33.333,1.00498,0,100.0,0.0,1.0,0.0,0.0,1.0,0,100.0,26.442,11.442,1,1.0,0,1.0,0,1.0,0,1.0,0,1.0
410,'1',0.0,0.0,244.012,-244.012,1.00413,0,100.0,0.0,1.0,0.0,0.0,1.0,1,100.0,338.906,0.0,1,1.0,0,1.0,0,1.0,0,1.0,0,1.0
2150,'1',0.0,0.0,22.5,-22.5,1.00288,0,100.0,0.0,0.2,0.0,0.0,1.0,1,100.0,31.25,0.0,1,1.0,0,1.0,0,1.0,0,1.0,0,1.0
1460,'1',0.0,0.0,352.795,-352.795,1.00413,0,100.0,0.0,1.0,0.0,0.0,1.0,1,100.0,489.992,0.0,1,1.0,0,1.0,0,1.0,0,1.0,0,1.0
470,'99',0.0,0.0,650.0,-650.0,0.9954,0,100.0,0.0,1.0,0.0,0.0,1.0,1,100.0,1386.444,0.0,1,1.0,0,1.0,0,1.0,0,1.0,0,1.0
2281,'1',0.0,0.0,367.963,-367.963,1.00413,0,100.0,0.0,1.0,0.0,0.0,1.0,0,100.0,511.06,0.0,1,1.0,0,1.0,0,1.0,0,1.0,0,1.0
96,'1',0.0,0.0,0.333,-0.333,1.02455,0,100.0,0.0,0.2,0.0,0.0,1.0,0,100.0,274.0,0.0,1,1.0,0,1.0,0,1.0,0,1.0,0,1.0
623,'99',0.0,0.0,33.333,-33.333,1.02071,0,100.0,0.0,1.0,0.0,0.0,1.0,0,100.0,27.211,12.211,1,1.0,0,1.0,0,1.0,0,1.0,0,1.0
343,'1',0.0,0.0,363.578,-363.578,1.00413,0,100.0,0.0,1.0,0.0,0.0,1.0,0,100.0,504.97,0.0,1,1.0,0,1.0,0,1.0,0,1.0,0,1.0
430,'1',0.0,0.0,327.375,-327.375,1.00413,0,100.0,0.0,1.0,0.0,0.0,1.0,0,100.0,454.688,0.0,1,1.0,0,1.0,0,1.0,0,1.0,0,1.0
1464,'1',0.0,0.0,364.527,-364.527,1.00413,0,100.0,0.0,1.0,0.0,0.0,1.0,1,100.0,506.288,0.0,1,1.0,0,1.0,0,1.0,0,1.0,0,1.0
937,'99',0.0,0.0,650.0,-650.0,1.0031,0,100.0,0.0,1.0,0.0,0.0,1.0,1,100.0,328.75,0.0,1,1.0,0,1.0,0,1.0,0,1.0,0,1.0
1472,'1',0.0,0.0,353.7,-353.7,1.00413,0,100.0,0.0,1.0,0.0,0.0,1.0,0,100.0,491.25,0.0,1,1.0,0,1.0,0,1.0,0,1.0,0,1.0
227,'1',0.0,0.0,45.0,-45.0,1.01227,0,100.0,0.0,0.18,0.0,0.0,1.0,0,100.0,135.0,-135.0,1,1.0,0,1.0,0,1.0,0,1.0,0,1.0
1832,'1',0.0,0.0,62.438,-62.438,1.0024,0,100.0,0.0,1.0,0.0,0.0,1.0,1,100.0,86.719,0.0,1,1.0,0,1.0,0,1.0,0,1.0,0,1.0
166,'1',0.0,0.0,161.1,-161.1,1.00445,0,100.0,0.0,0.18,0.0,0.0,1.0,1,100.0,223.75,-200.0,1,1.0,0,1.0,0,1.0,0,1.0,0,1.0
1367,'2',0.0,0.0,382.5,-382.5,1.00225,0,100.0,0.0,0.21,0.0,0.0,1.0,1,100.0,531.25,240.0,1,1.0,0,1.0,0,1.0,0,1.0,0,1.0
1061,'99',0.0,0.0,650.0,-650.0,1.0075,0,100.0,0.0,1.0,0.0,0.0,1.0,1,100.0,531.609,0.0,1,1.0,0,1.0,0,1.0,0,1.0,0,1.0
124,'1',0.0,0.0,22.333,-22.333,1.02455,0,100.0,0.0,0.2,0.0,0.0,1.0,0,100.0,67.0,40.0,1,1.0,0,1.0,0,1.0,0,1.0,0,1.0
458,'1',0.0,0.0,314.55,-314.55,1.00413,0,100.0,0.0,1.0,0.0,0.0,1.0,0,100.0,436.875,0.0,1,1.0,0,1.0,0,1.0,0,1.0,0,1.0
792,'1',0.0,0.0,27.0,-27.0,1.00718,0,100.0,0.0,0.2,0.0,0.0,1.0,0,100.0,37.5,0.0,1,1.0,0,1.0,0,1.0,0,1.0,0,1.0
397,'1',0.0,0.0,330.75,-330.75,1.00413,0,100.0,0.0,1.0,0.0,0.0,1.0,0,100.0,459.375,0.0,1,1.0,0,1.0,0,1.0,0,1.0,0,1.0
1447,'1',0.0,0.0,244.012,-244.012,1.00413,0,100.0,0.0,1.0,0.0,0.0,1.0,1,100.0,338.906,0.0,1,1.0,0,1.0,0,1.0,0,1.0,0,1.0
689,'1',0.0,0.0,75.0,-75.0,1.00858,0,100.0,0.0,0.18,0.0,0.0,1.0,0,100.0,225.0,135.0,1,1.0,0,1.0,0,1.0,0,1.0,0,1.0
2310,'1',0.0,0.0,370.948,-370.948,1.00413,0,100.0,0.0,1.0,0.0,0.0,1.0,0,100.0,515.205,0.0,1,1.0,0,1.0,0,1.0,0,1.0,0,1.0
939,'99',0.0,0.0,33.333,-33.333,1.00053,0,100.0,0.0,1.0,0.0,0.0,1.0,0,100.0,28.506,13.506,1,1.0,0,1.0,0,1.0,0,1.0,0,1.0
194,'1',0.0,0.0,255.6,-255.6,1.00718,0,100.0,0.0,0.2,0.0,0.0,1.0,0,100.0,355.0,0.0,1,1.0,0,1.0,0,1.0,0,1.0,0,1.0
1672,'97',0.0,0.0,566.0,-566.0,1.0,0,100.0,0.0,0.1,0.0,0.0,1.0,1,100.0,12.5,0.0,1,1.0,0,1.0,0,1.0,0,1.0,0,1.0
417,'1',0.0,0.0,353.7,-353.7,1.00413,0,100.0,0.0,1.0,0.0,0.0,1.0,1,100.0,491.25,0.0,1,1.0,0,1.0,0,1.0,0,1.0,0,1.0
836,'1',0.0,0.0,1.0,-1.0,1.02455,0,100.0,0.0,0.2,0.0,0.0,1.0,0,100.0,297.0,3.0,1,1.0,0,1.0,0,1.0,0,1.0,0,1.0
2037,'97',0.0,0.0,566.0,-566.0,1.0,0,100.0,0.0,0.1,0.0,0.0,1.0,1,100.0,12.5,0.0,1,1.0,0,1.0,0,1.0,0,1.0,0,1.0
1615,'99',0.0,0.0,650.0,-650.0,0.9944,0,100.0,0.0,1.0,0.0,0.0,1.0,1,100.0,92.542,0.0,1,1.0,0,1.0,0,1.0,0,1.0,0,1.0
2246,'99',0.0,0.0,33.333,-33.333,1.0073,0,100.0,0.0,1.0,0.0,0.0,1.0,0,100.0,25.264,10.264,1,1.0,0,1.0,0,1.0,0,1.0,0,1.0
733,'1',0.0,0.0,13.5,-13.5,1.00718,0,100.0,0.0,0.2,0.0,0.0,1.0,0,100.0,18.75,0.0,1,1.0,0,1.0,0,1.0,0,1.0,0,1.0
629,'2',0.0,0.0,5.667,-5.667,1.02455,0,100.0,0.0,0.2,0.0,0.0,1.0,0,100.0,17.0,4.0,1,1.0,0,1.0,0,1.0,0,1.0,0,1.0
2199,'2',0.0,0.0,33.333,-33.333,1.00788,0,100.0,0.0,0.18,0.0,0.0,1.0,0,100.0,100.0,65.0,1,1.0,0,1.0,0,1.0,0,1.0,0,1.0
217,'99',0.0,0.0,650.0,-650.0,0.9987,0,100.0,0.0,1.0,0.0,0.0,1.0,1,100.0,213.769,0.0,1,1.0,0,1.0,0,1.0,0,1.0,0,1.0
2199,'1',0.0,0.0,36.667,-36.667,1.00788,0,100.0,0.0,0.18,0.0,0.0,1.0,0,100.0,110.0,65.0,1,1.0,0,1.0,0,1.0,0,1.0,0,1.0
1849,'1',0.0,0.0,221.775,-221.775,1.00413,0,100.0,0.0,1.0,0.0,0.0,1.0,1,100.0,308.021,0.0,1,1.0,0,1.0,0,1.0,0,1.0,0,1.0
1485,'1',0.0,0.0,75.938,-75.938,1.00413,0,100.0,0.0,1.0,0.0,0.0,1.0,1,100.0,105.469,0.0,1,1.0,0,1.0,0,1.0,0,1.0,0,1.0
361,'1',0.0,0.0,358.131,-358.131,1.00413,0,100.0,0.0,1.0,0.0,0.0,1.0,0,100.0,497.404,0.0,1,1.0,0,1.0,0,1.0,0,1.0,0,1.0
1566,'99',0.0,0.0,650.0,-650.0,0.9964,0,100.0,0.0,1.0,0.0,0.0,1.0,1,100.0,97.859,0.0,1,1.0,0,1.0,0,1.0,0,1.0,0,1.0
1877,'99',0.0,0.0,33.333,-33.333,1.0134,0,100.0,0.0,1.0,0.0,0.0,1.0,0,100.0,87.436,72.436,1,1.0,0,1.0,0,1.0,0,1.0,0,1.0
1469,'1',0.0,0.0,285.188,-285.188,1.00413,0,100.0,0.0,1.0,0.0,0.0,1.0,0,100.0,396.094,0.0,1,1.0,0,1.0,0,1.0,0,1.0,0,1.0
759,'2',0.0,0.0,382.5,-382.5,1.00225,0,100.0,0.0,0.21,0.0,0.0,1.0,0,100.0,531.25,240.0,1,1.0,0,1.0,0,1.0,0,1.0,0,1.0
345,'1',0.0,0.0,363.617,-363.617,1.00413,0,100.0,0.0,1.0,0.0,0.0,1.0,1,100.0,505.024,0.0,1,1.0,0,1.0,0,1.0,0,1.0,0,1.0
695,'99',0.0,0.0,33.333,-33.333,1.00488,0,100.0,0.0,1.0,0.0,0.0,1.0,0,100.0,154.701,139.701,1,1.0,0,1.0,0,1.0,0,1.0,0,1.0
1903,'99',0.0,0.0,650.0,-650.0,1.0048,0,100.0,0.0,1.0,0.0,0.0,1.0,1,100.0,330.0,0.0,1,1.0,0,1.0,0,1.0,0,1.0,0,1.0
701,'2',0.0,0.0,1.0,-1.0,1.00718,0,100.0,0.0,0.2,0.0,0.0,1.0,0,100.0,260.0,0.0,1,1.0,0,1.0,0,1.0,0,1.0,0,1.0
709,'2',0.0,0.0,18.333,-18.333,1.02182,0,100.0,0.0,0.2,0.0,0.0,1.0,0,100.0,55.0,25.0,1,1.0,0,1.0,0,1.0,0,1.0,0,1.0
1597,'1',0.0,0.0,33.333,-33.333,1.01,0,100.0,0.0,1.0,0.0,0.0,1.0,0,100.0,254.0,0.0,1,1.0,0,1.0,0,1.0,0,1.0,0,1.0
1813,'1',0.0,0.0,27.0,-27.0,1.00413,0,100.0,0.0,1.0,0.0,0.0,1.0,1,100.0,37.5,0.0,1,1.0,0,1.0,0,1.0,0,1.0,0,1.0
12,'1',0.0,0.0,49.5,-49.5,1.00788,0,100.0,0.0,0.2,0.0,0.0,1.0,0,100.0,68.75,35.833,1,1.0,0,1.0,0,1.0,0,1.0,0,1.0
355,'1',0.0,0.0,244.012,-244.012,1.00413,0,100.0,0.0,1.0,0.0,0.0,1.0,0,100.0,338.906,0.0,1,1.0,0,1.0,0,1.0,0,1.0,0,1.0
1428,'1',0.0,0.0,366.348,-366.348,1.00413,0,100.0,0.0,1.0,0.0,0.0,1.0,0,100.0,508.816,0.0,1,1.0,0,1.0,0,1.0,0,1.0,0,1.0
...
0 / end generator section
1096,1217,'1',0.0025,0.0129,0.0036,50.0,60.0,60.0,0.0,0.0,0.0,0.0,1,2,0.0,1,1.0,0,1.0,0,1.0,0,1.0
1924,1954,'1',0.04013,0.09196,0.01954,55.07,66.08,66.08,0.0,0.0,0.0,0.0,1,2,0.0,1,1.0,0,1.0,0,1.0,0,1.0
2091,2100,'1',0.01773,0.11678,0.16361,50.0,60.0,60.0,0.0,0.0,0.0,0.0,1,2,0.0,1,1.0,0,1.0,0,1.0,0,1.0
13,59,'1',0.02256,0.04314,0.004,50.0,60.0,60.0,0.0,0.0,0.0,0.0,1,1,0.0,1,1.0,0,1.0,0,1.0,0,1.0
324,326,'1',0.0328,0.07474,0.00784,73.97,88.76,88.76,0.0,0.0,0.0,0.0,1,1,0.0,1,1.0,0,1.0,0,1.0,0,1.0
1513,1521,'1',0.00019,0.00199,0.2622,2350.95,2821.14,2821.14,0.0,0.0,0.0,0.0,1,1,0.0,1,1.0,0,1.0,0,1.0,0,1.0
2233,2234,'1',8e-05,0.00083,0.0,438.0,525.6,525.6,0.0,0.0,0.0,0.0,1,2,0.0,1,1.0,0,1.0,0,1.0,0,1.0
648,672,'1',0.0043,0.03033,0.00319,186.08,223.3,223.3,0.0,0.0,0.0,0.0,1,2,0.0,1,1.0,0,1.0,0,1.0,0,1.0
713,735,'1',0.05807,0.10306,0.00937,50.0,60.0,60.0,0.0,0.0,0.0,0.0,1,2,0.0,1,1.0,0,1.0,0,1.0,0,1.0
2156,2253,'1',0.0019,0.00529,0.00071,62.0,74.4,74.4,0.0,0.0,0.0,0.0,1,2,0.0,1,1.0,0,1.0,0,1.0,0,1.0
829,843,'1',0.00355,0.02421,0.00271,208.0,249.6,249.6,0.0,0.0,0.0,0.0,1,2,0.0,1,1.0,0,1.0,0,1.0,0,1.0
472,480,'1',0.00111,0.01554,0.9397,480.2,576.24,576.24,0.0,0.0,0.0,0.0,1,2,0.0,1,1.0,0,1.0,0,1.0,0,1.0
1178,1256,'1',0.0012,0.0068,0.00012,260.0,312.0,312.0,0.0,0.0,0.0,0.0,1,2,0.0,1,1.0,0,1.0,0,1.0,0,1.0
522,563,'1',0.00471,0.01339,0.0018,116.0,127.6,127.6,0.0,0.0,0.0,0.0,1,2,0.0,1,1.0,0,1.0,0,1.0,0,1.0
809,815,'1',0.00223,0.00727,0.00073,90.0,108.0,108.0,0.0,0.0,0.0,0.0,1,2,0.0,1,1.0,0,1.0,0,1.0,0,1.0
1884,1887,'1',0.00378,0.0139,0.0856,433.99,520.79,520.79,0.0,0.0,0.0,0.0,1,2,0.0,1,1.0,0,1.0,0,1.0,0,1.0
1874,1919,'1',0.00239,0.01199,0.0029,50.0,60.0,60.0,0.0,0.0,0.0,0.0,1,1,0.0,1,1.0,0,1.0,0,1.0,0,1.0
956,1134,'1',0.02556,0.0791,0.0,260.0,312.0,312.0,0.0,0.0,0.0,0.0,1,2,0.0,1,1.0,0,1.0,0,1.0,0,1.0
744,745,'1',0.00026,0.00066,7e-05,50.0,60.0,60.0,0.0,0.0,0.0,0.0,1,1,0.0,1,1.0,0,1.0,0,1.0,0,1.0
1973,1975,'1',0.0018,0.0041,0.0009,27.69,33.22,33.22,0.0,0.0,0.0,0.0,1,1,0.0,1,1.0,0,1.0,0,1.0,0,1.0
182,205,'1',0.00207,0.00694,0.0007,50.0,60.0,60.0,0.0,0.0,0.0,0.0,1,2,0.0,1,1.0,0,1.0,0,1.0,0,1.0
621,622,'1',0.00041,0.00124,0.00017,50.0,60.0,60.0,0.0,0.0,0.0,0.0,1,1,0.0,1,1.0,0,1.0,0,1.0,0,1.0
295,307,'1',0.0405,0.07107,0.00673,50.0,60.0,60.0,0.0,0.0,0.0,0.0,1,2,0.0,1,1.0,0,1.0,0,1.0,0,1.0
1854,2013,'1',6e-05,0.00021,0.0525,237.21,284.65,284.65,0.0,0.0,0.0,0.0,1,1,0.0,1,1.0,0,1.0,0,1.0,0,1.0
158,474,'TL',0.0001,0.01,0.0,582.0,640.2,640.2,0.0,0.0,0.0,0.0,1,2,0.0,95,1.0,0,1.0,0,1.0,0,1.0
729,737,'1',0.00364,0.01074,0.00106,50.0,60.0,60.0,0.0,0.0,0.0,0.0,1,1,0.0,1,1.0,0,1.0,0,1.0,0,1.0
2137,2138,'1',8e-05,0.00083,0.0,438.0,525.6,525.6,0.0,0.0,0.0,0.0,1,2,0.0,1,1.0,0,1.0,0,1.0,0,1.0
945,1253,'1',0.0011,0.0078,0.0023,277.0,332.4,332.4,0.0,0.0,0.0,0.0,1,2,0.0,1,1.0,0,1.0,0,1.0,0,1.0
307,308,'1',0.00413,0.01372,0.00138,50.0,60.0,60.0,0.0,0.0,0.0,0.0,1,2,0.0,1,1.0,0,1.0,0,1.0,0,1.0
527,531,'1',0.00959,0.03107,0.00321,62.0,74.4,74.4,0.0,0.0,0.0,0.0,1,2,0.0,1,1.0,0,1.0,0,1.0,0,1.0
102,125,'1',0.00661,0.01826,0.00194,102.0,122.4,122.4,0.0,0.0,0.0,0.0,1,1,0.0,1,1.0,0,1.0,0,1.0,0,1.0
883,1128,'1',0.0074,0.03331,0.00935,50.0,60.0,60.0,0.0,0.0,0.0,0.0,1,2,0.0,1,1.0,0,1.0,0,1.0,0,1.0
30,65,'1',8e-05,0.00025,2e-05,75.0,90.0,90.0,0.0,0.0,0.0,0.0,1,2,0.0,1,1.0,0,1.0,0,1.0,0,1.0
626,689,'1',0.00355,0.01132,0.00123,132.97,159.56,159.56,0.0,0.0,0.0,0.0,1,2,0.0,1,1.0,0,1.0,0,1.0,0,1.0
291,307,'1',0.021,0.0679,0.00696,101.0,121.2,121.2,0.0,0.0,0.0,0.0,1,2,0.0,1,1.0,0,1.0,0,1.0,0,1.0
659,1807,'TL',0.0001,0.01,0.0,83.7,100.44,100.44,0.0,0.0,0.0,0.0,1,1,0.0,49,1.0,0,1.0,0,1.0,0,1.0
920,978,'1',0.0357,0.1551,0.00369,50.0,60.0,60.0,0.0,0.0,0.0,0.0,1,2,0.0,1,1.0,0,1.0,0,1.0,0,1.0
341,342,'1',6e-05,0.02002,0.0,486.86,584.24,584.24,0.0,0.0,0.0,0.0,1,1,0.0,1,1.0,0,1.0,0,1.0,0,1.0
1628,1652,'1',0.00118,0.01637,0.14957,562.62,675.14,675.14,0.0,0.0,0.0,0.0,1,2,0.0,1,1.0,0,1.0,0,1.0,0,1.0
1081,1100,'1',0.0305,0.0781,0.0015,260.0,312.0,312.0,0.0,0.0,0.0,0.0,1,2,0.0,1,1.0,0,1.0,0,1.0,0,1.0
1907,1916,'1',0.0006,0.0009,0.0328,43.02,51.62,51.62,0.0,0.0,0.0,0.0,1,1,0.0,1,1.0,0,1.0,0,1.0,0,1.0
2082,2106,'1',0.00192,0.01355,0.023,341.0,409.2,409.2,0.0,0.0,0.0,0.0,1,1,0.0,1,1.0,0,1.0,0,1.0,0,1.0
1799,1896,'1',0.03647,0.10472,0.01242,53.0,63.6,63.6,0.0,0.0,0.0,0.0,1,2,0.0,1,1.0,0,1.0,0,1.0,0,1.0
346,368,'1',1e-05,0.00026,0.0717,387.41,464.89,464.89,0.0,0.0,0.0,0.0,1,2,0.0,1,1.0,0,1.0,0,1.0,0,1.0
1643,1672,'1',0.00266,0.00926,0.09204,79.79,95.75,95.75,0.0,0.0,0.0,0.0,1,2,0.0,1,1.0,0,1.0,0,1.0,0,1.0
814,815,'1',8e-05,0.00083,0.0,438.0,525.6,525.6,0.0,0.0,0.0,0.0,1,2,0.0,1,1.0,0,1.0,0,1.0,0,1.0
1065,1146,'1',0.0039,0.0181,0.005,218.0,261.6,261.6,0.0,0.0,0.0,0.0,1,2,0.0,1,1.0,0,1.0,0,1.0,0,1.0
175,210,'1',0.01083,0.03471,0.00358,75.0,82.5,82.5,0.0,0.0,0.0,0.0,1,1,0.0,1,1.0,0,1.0,0,1.0,0,1.0
1064,1214,'1',0.0105,0.0278,0.0,260.0,312.0,312.0,0.0,0.0,0.0,0.0,1,1,0.0,1,1.0,0,1.0,0,1.0,0,1.0
2076,2090,'1',0.00079,0.00488,0.00726,137.0,164.4,164.4,0.0,0.0,0.0,0.0,1,2,0.0,1,1.0,0,1.0,0,1.0,0,1.0
1351,1903,'TL',0.0001,0.01,0.0,83.7,100.44,100.44,0.0,0.0,0.0,0.0,1,1,0.0,86,1.0,0,1.0,0,1.0,0,1.0
2211,2241,'1',0.02,0.04405,0.01004,62.0,74.4,74.4,0.0,0.0,0.0,0.0,1,2,0.0,1,1.0,0,1.0,0,1.0,0,1.0
1218,1289,'1',0.00572,0.02659,0.00691,239.0,286.8,286.8,0.0,0.0,0.0,0.0,1,1,0.0,1,1.0,0,1.0,0,1.0,0,1.0
1493,1494,'1',0.00203,0.01907,0.5332,617.69,741.23,741.23,0.0,0.0,0.0,0.0,1,1,0.0,1,1.0,0,1.0,0,1.0,0,1.0
907,977,'1',0.0179,0.0511,0.013,174.0,208.8,208.8,0.0,0.0,0.0,0.0,1,1,0.0,1,1.0,0,1.0,0,1.0,0,1.0
1913,1962,'1',0.0048,0.01145,0.00225,117.05,140.46,140.46,0.0,0.0,0.0,0.0,1,2,0.0,1,1.0,0,1.0,0,1.0,0,1.0
1417,1506,'1',0.00024,0.00368,0.1502,1690.36,2028.43,2028.43,0.0,0.0,0.0,0.0,1,1,0.0,1,1.0,0,1.0,0,1.0,0,1.0
396,434,'1',1e-05,0.00026,0.0717,387.41,464.89,464.89,0.0,0.0,0.0,0.0,1,2,0.0,1,1.0,0,1.0,0,1.0,0,1.0
580,1367,'TL',0.0001,0.01,0.0,391.0,430.1,430.1,0.0,0.0,0.0,0.0,1,2,0.0,34,1.0,0,1.0,0,1.0,0,1.0
54,55,'1',8e-05,0.00083,0.0,438.0,525.6,525.6,0.0,0.0,0.0,0.0,1,2,0.0,1,1.0,0,1.0,0,1.0,0,1.0
793,794,'1',8e-05,0.00083,0.0,438.0,525.6,525.6,0.0,0.0,0.0,0.0,1,2,0.0,1,1.0,0,1.0,0,1.0,0,1.0
972,1069,'1',0.0031,0.0117,0.00301,178.0,213.6,213.6,0.0,0.0,0.0,0.0,1,1,0.0,1,1.0,0,1.0,0,1.0,0,1.0
1366,1378,'1',0.00234,0.02677,0.74653,1154.0,1384.8,1384.8,0.0,0.0,0.0,0.0,1,1,0.0,1,1.0,0,1.0,0,1.0,0,1.0
50,51,'1',0.00017,0.00041,5e-05,50.0,60.0,60.0,0.0,0.0,0.0,0.0,1,1,0.0,1,1.0,0,1.0,0,1.0,0,1.0
732,741,'1',0.00736,0.02372,0.00242,50.0,60.0,60.0,0.0,0.0,0.0,0.0,1,1,0.0,1,1.0,0,1.0,0,1.0,0,1.0
1384,1396,'1',0.00355,0.01157,0.00121,90.0,108.0,108.0,0.0,0.0,0.0,0.0,1,1,0.0,1,1.0,0,1.0,0,1.0,0,1.0
1051,1255,'1',0.0043,0.013,0.00029,260.0,312.0,312.0,0.0,0.0,0.0,0.0,1,1,0.0,1,1.0,0,1.0,0,1.0,0,1.0
2283,2284,'2',0.00037,0.007,0.2955,1011.09,1213.31,1213.31,0.0,0.0,0.0,0.0,1,1,0.0,1,1.0,0,1.0,0,1.0,0,1.0
2249,2250,'1',8e-05,0.00083,0.0,438.0,525.6,525.6,0.0,0.0,0.0,0.0,1,2,0.0,1,1.0,0,1.0,0,1.0,0,1.0
1096,1294,'1',0.0143,0.0408,0.01004,163.0,195.6,195.6,0.0,0.0,0.0,0.0,1,2,0.0,1,1.0,0,1.0,0,1.0,0,1.0
2199,2231,'1',0.00471,0.01554,0.00157,77.0,84.7,84.7,0.0,0.0,0.0,0.0,1,2,0.0,1,1.0,0,1.0,0,1.0,0,1.0
1816,1905,'1',0.0599,0.1363,0.0293,97.93,117.52,117.52,0.0,0.0,0.0,0.0,1,2,0.0,1,1.0,0,1.0,0,1.0,0,1.0
1144,1343,'1',0.0027,0.0078,0.002,173.0,207.6,207.6,0.0,0.0,0.0,0.0,1,1,0.0,1,1.0,0,1.0,0,1.0,0,1.0
2168,2189,'1',0.03595,0.09132,0.0097,51.0,61.2,61.2,0.0,0.0,0.0,0.0,1,2,0.0,1,1.0,0,1.0,0,1.0,0,1.0
679,687,'1',0.0176,0.05686,0.00587,97.87,117.44,117.44,0.0,0.0,0.0,0.0,1,2,0.0,1,1.0,0,1.0,0,1.0,0,1.0
2140,2237,'1',0.02529,0.04041,0.00662,169.0,185.9,185.9,0.0,0.0,0.0,0.0,1,2,0.0,1,1.0,0,1.0,0,1.0,0,1.0
1694,1697,'1',0.00014,0.00049,0.10691,93.86,112.63,112.63,0.0,0.0,0.0,0.0,1,1,0.0,1,1.0,0,1.0,0,1.0,0,1.0
1551,1552,'2',0.00112,0.01026,0.163,595.25,714.3,714.3,0.0,0.0,0.0,0.0,1,1,0.0,1,1.0,0,1.0,0,1.0,0,1.0
75,150,'1',0.0018,0.01616,0.0484,754.02,904.82,904.82,0.0,0.0,0.0,0.0,1,2,0.0,1,1.0,0,1.0,0,1.0,0,1.0
600,646,'1',0.01636,0.04132,0.0045,50.0,60.0,60.0,0.0,0.0,0.0,0.0,1,2,0.0,1,1.0,0,1.0,0,1.0,0,1.0
1560,1561,'1',0.00338,0.02203,0.1166,207.87,249.45,249.45,0.0,0.0,0.0,0.0,1,2,0.0,1,1.0,0,1.0,0,1.0,0,1.0
1993,2029,'1',1e-07,0.00026,0.0,308.21,369.85,369.85,0.0,0.0,0.0,0.0,1,1,0.0,1,1.0,0,1.0,0,1.0,0,1.0
2161,2254,'1',0.00091,0.00298,0.0003,63.25,75.9,75.9,0.0,0.0,0.0,0.0,1,1,0.0,1,1.0,0,1.0,0,1.0,0,1.0
1042,1324,'1',1e-07,0.001,0.0,50.0,60.0,60.0,0.0,0.0,0.0,0.0,1,2,0.0,1,1.0,0,1.0,0,1.0,0,1.0
1047,1050,'1',0.03373,0.09052,0.02235,174.0,208.8,208.8,0.0,0.0,0.0,0.0,1,2,0.0,1,1.0,0,1.0,0,1.0,0,1.0
1707,1720,'1',0.00896,0.01995,0.00452,81.84,98.21,98.21,0.0,0.0,0.0,0.0,1,1,0.0,1,1.0,0,1.0,0,1.0,0,1.0
84,143,'1',0.01877,0.03282,0.00313,107.46,128.95,128.95,0.0,0.0,0.0,0.0,1,1,0.0,1,1.0,0,1.0,0,1.0,0,1.0
872,1042,'1',0.00483,0.01908,0.0163,300.0,360.0,360.0,0.0,0.0,0.0,0.0,1,1,0.0,1,1.0,0,1.0,0,1.0,0,1.0
1672,1673,'1',0.00395,0.00271,0.064,39.45,47.34,47.34,0.0,0.0,0.0,0.0,1,1,0.0,1,1.0,0,1.0,0,1.0,0,1.0
43,2259,'TL',0.0001,0.01,0.0,50.0,60.0,60.0,0.0,0.0,0.0,0.0,1,1,0.0,12,1.0,0,1.0,0,1.0,0,1.0
1533,1543,'1',0.00108,0.01549,0.1232,269.0,295.9,295.9,0.0,0.0,0.0,0.0,1,2,0.0,1,1.0,0,1.0,0,1.0,0,1.0
1127,1250,'1',0.0986,0.0899,0.0,50.0,60.0,60.0,0.0,0.0,0.0,0.0,1,1,0.0,1,1.0,0,1.0,0,1.0,0,1.0
348,378,'1',0.0004,0.00617,0.2243,1770.25,2124.3,2124.3,0.0,0.0,0.0,0.0,1,2,0.0,1,1.0,0,1.0,0,1.0,0,1.0
897,1303,'1',0.00395,0.02403,0.00673,300.0,360.0,360.0,0.0,0.0,0.0,0.0,1,2,0.0,1,1.0,0,1.0,0,1.0,0,1.0
369,378,'1',9e-05,0.00132,0.0539,2206.7,2648.04,2648.04,0.0,0.0,0.0,0.0,1,1,0.0,1,1.0,0,1.0,0,1.0,0,1.0
1870,1914,'1',1e-07,0.00026,0.0,42.38,50.86,50.86,0.0,0.0,0.0,0.0,1,1,0.0,1,1.0,0,1.0,0,1.0,0,1.0
2082,2088,'1',0.00341,0.02442,0.03997,317.0,380.4,380.4,0.0,0.0,0.0,0.0,1,2,0.0,1,1.0,0,1.0,0,1.0,0,1.0
1642,1643,'1',0.01072,0.02387,0.00541,76.5,91.8,91.8,0.0,0.0,0.0,0.0,1,1,0.0,1,1.0,0,1.0,0,1.0,0,1.0
716,741,'1',0.00492,0.02302,0.00236,50.0,60.0,60.0,0.0,0.0,0.0,0.0,1,2,0.0,1,1.0,0,1.0,0,1.0,0,1.0
1184,1220,'1',0.3532,0.77983,0.0,50.0,60.0,60.0,0.0,0.0,0.0,0.0,1,1,0.0,1,1.0,0,1.0,0,1.0,0,1.0
645,646,'1',0.00058,0.00099,0.0001,50.0,60.0,60.0,0.0,0.0,0.0,0.0,1,1,0.0,1,1.0,0,1.0,0,1.0,0,1.0
1862,1863,'1',0.0079,0.229,0.0,81.41,97.69,97.69,0.0,0.0,0.0,0.0,1,1,0.0,1,1.0,0,1.0,0,1.0,0,1.0
1279,2311,'TL',0.0001,0.01,0.0,173.0,190.3,190.3,0.0,0.0,0.0,0.0,1,1,0.0,82,1.0,0,1.0,0,1.0,0,1.0
907,1097,'1',0.00765,0.05193,0.0149,311.0,373.2,373.2,0.0,0.0,0.0,0.0,1,1,0.0,1,1.0,0,1.0,0,1.0,0,1.0
7,8,'1',2e-05,0.00021,0.0,876.0,1051.2,1051.2,0.0,0.0,0.0,0.0,1,2,0.0,1,1.0,0,1.0,0,1.0,0,1.0
603,673,'1',0.02256,0.04314,0.004,50.0,60.0,60.0,0.0,0.0,0.0,0.0,1,1,0.0,1,1.0,0,1.0,0,1.0,0,1.0
1660,1662,'1',0.00017,0.00084,0.10273,132.39,158.87,158.87,0.0,0.0,0.0,0.0,1,1,0.0,1,1.0,0,1.0,0,1.0,0,1.0
1942,2020,'1',0.00075,0.0029,0.03908,115.29,138.34,138.34,0.0,0.0,0.0,0.0,1,2,0.0,1,1.0,0,1.0,0,1.0,0,1.0
2269,2282,'1',0.00091,0.01707,0.7148,894.6,1073.52,1073.52,0.0,0.0,0.0,0.0,1,2,0.0,1,1.0,0,1.0,0,1.0,0,1.0
831,863,'1',0.01074,0.03479,0.00359,321.0,353.1,353.1,0.0,0.0,0.0,0.0,1,2,0.0,1,1.0,0,1.0,0,1.0,0,1.0
1090,1246,'1',0.00071,0.00344,0.0033,277.0,332.4,332.4,0.0,0.0,0.0,0.0,1,1,0.0,1,1.0,0,1.0,0,1.0,0,1.0
1722,1738,'1',0.0011,0.0093,0.059,358.74,430.49,430.49,0.0,0.0,0.0,0.0,1,1,0.0,1,1.0,0,1.0,0,1.0,0,1.0
84,114,'1',0.0138,0.02421,0.0023,90.58,108.7,108.7,0.0,0.0,0.0,0.0,1,2,0.0,1,1.0,0,1.0,0,1.0,0,1.0
674,675,'1',0.00124,0.00347,0.00046,50.0,60.0,60.0,0.0,0.0,0.0,0.0,1,1,0.0,1,1.0,0,1.0,0,1.0,0,1.0
1700,1703,'2',0.00307,0.01508,0.01304,50.31,60.37,60.37,0.0,0.0,0.0,0.0,1,2,0.0,1,1.0,0,1.0,0,1.0,0,1.0
612,620,'1',0.00496,0.0162,0.00164,75.0,90.0,90.0,0.0,0.0,0.0,0.0,1,2,0.0,1,1.0,0,1.0,0,1.0,0,1.0
304,328,'1',0.00124,0.00413,0.00039,50.0,60.0,60.0,0.0,0.0,0.0,0.0,1,2,0.0,1,1.0,0,1.0,0,1.0,0,1.0
1059,1060,'1',0.013,0.0976,0.00754,260.0,312.0,312.0,0.0,0.0,0.0,0.0,1,1,0.0,1,1.0,0,1.0,0,1.0,0,1.0
2299,2314,'1',1e-07,0.00026,0.0,50.0,60.0,60.0,0.0,0.0,0.0,0.0,1,1,0.0,1,1.0,0,1.0,0,1.0,0,1.0
2240,2252,'1',0.0457,0.2405,0.0243,62.0,74.4,74.4,0.0,0.0,0.0,0.0,1,2,0.0,1,1.0,0,1.0,0,1.0,0,1.0
935,1097,'1',0.00028,0.00192,0.00055,314.0,376.8,376.8,0.0,0.0,0.0,0.0,1,1,0.0,1,1.0,0,1.0,0,1.0,0,1.0
719,722,'1',0.00124,0.00413,0.00039,50.0,60.0,60.0,0.0,0.0,0.0,0.0,1,1,0.0,1,1.0,0,1.0,0,1.0,0,1.0
67,1980,'TL',0.0001,0.01,0.0,83.7,100.44,100.44,0.0,0.0,0.0,0.0,1,2,0.0,38,1.0,0,1.0,0,1.0,0,1.0
810,811,'1',8e-05,0.00083,0.0,438.0,525.6,525.6,0.0,0.0,0.0,0.0,1,2,0.0,1,1.0,0,1.0,0,1.0,0,1.0
804,854,'1',0.0243,0.07893,0.00815,50.0,60.0,60.0,0.0,0.0,0.0,0.0,1,1,0.0,1,1.0,0,1.0,0,1.0,0,1.0
1874,2002,'1',0.0078,0.0391,0.0094,43.86,52.63,52.63,0.0,0.0,0.0,0.0,1,2,0.0,1,1.0,0,1.0,0,1.0,0,1.0
2123,2124,'1',8e-05,0.00083,0.0,438.0,525.6,525.6,0.0,0.0,0.0,0.0,1,2,0.0,1,1.0,0,1.0,0,1.0,0,1.0
1155,1241,'1',0.0039,0.014,0.0038,50.0,60.0,60.0,0.0,0.0,0.0,0.0,1,1,0.0,1,1.0,0,1.0,0,1.0,0,1.0
2118,2213,'1',0.01909,0.05421,0.0073,62.0,74.4,74.4,0.0,0.0,0.0,0.0,1,1,0.0,1,1.0,0,1.0,0,1.0,0,1.0
770,853,'1',0.01198,0.03893,0.00402,323.0,355.3,355.3,0.0,0.0,0.0,0.0,1,2,0.0,1,1.0,0,1.0,0,1.0,0,1.0
938,1016,'1',0.0317,0.0838,0.0211,258.0,309.6,309.6,0.0,0.0,0.0,0.0,1,1,0.0,1,1.0,0,1.0,0,1.0,0,1.0
78,581,'TL',0.0001,0.01,0.0,135.61,162.73,162.73,0.0,0.0,0.0,0.0,1,2,0.0,28,1.0,0,1.0,0,1.0,0,1.0
1272,1350,'1',0.00055,0.00359,0.00055,311.0,373.2,373.2,0.0,0.0,0.0,0.0,1,2,0.0,1,1.0,0,1.0,0,1.0,0,1.0
2149,2221,'1',0.00934,0.01628,0.00189,50.0,60.0,60.0,0.0,0.0,0.0,0.0,1,1,0.0,1,1.0,0,1.0,0,1.0,0,1.0
828,833,'1',0.03529,0.13702,0.01374,90.0,108.0,108.0,0.0,0.0,0.0,0.0,1,2,0.0,1,1.0,0,1.0,0,1.0,0,1.0
1691,1693,'1',0.0002,0.00162,0.01097,190.72,228.87,228.87,0.0,0.0,0.0,0.0,1,1,0.0,1,1.0,0,1.0,0,1.0,0,1.0
...